<?xml version="1.0" encoding="UTF-8"?>

<!-- generated on 02/12/20 12:29:58 by Eclipse SUMO netedit Version 1.3.1
<configuration xmlns:xsi="http://www.w3.org/2001/XMLSchema-instance" xsi:noNamespaceSchemaLocation="http://sumo.dlr.de/xsd/netconvertConfiguration.xsd">

    <output>
        <output-file value="Z:\Work\Sumo\sumo_apis\simple_parking\networks\mall\mall.net.xml"/>
    </output>

    <processing>
        <offset.disable-normalization value="true"/>
    </processing>

    <junctions>
        <no-turnarounds value="true"/>
    </junctions>

</configuration>
-->

<net version="1.3" junctionCornerDetail="5" limitTurnSpeed="5.50" xmlns:xsi="http://www.w3.org/2001/XMLSchema-instance" xsi:noNamespaceSchemaLocation="http://sumo.dlr.de/xsd/net_file.xsd">

    <location netOffset="0.00,0.00" convBoundary="6.10,-36.56,227.90,92.06" origBoundary="10000000000.00,10000000000.00,-10000000000.00,-10000000000.00" projParameter="!"/>

    <edge id=":gneJ0_0" function="internal">
        <lane id=":gneJ0_0_0" index="0" speed="13.89" length="0.31" shape="8.08,5.85 8.08,6.16"/>
    </edge>
    <edge id=":gneJ0_1" function="internal">
        <lane id=":gneJ0_1_0" index="0" speed="13.89" length="0.28" shape="4.88,6.15 4.88,5.88"/>
    </edge>
    <edge id=":gneJ1_0" function="internal">
        <lane id=":gneJ1_0_0" index="0" speed="13.89" length="14.56" shape="5.01,55.27 4.79,40.71"/>
    </edge>
    <edge id=":gneJ1_1" function="internal">
        <lane id=":gneJ1_1_0" index="0" speed="7.97" length="6.12" shape="5.01,55.27 5.44,51.38 6.52,49.46"/>
    </edge>
    <edge id=":gneJ1_6" function="internal">
        <lane id=":gneJ1_6_0" index="0" speed="7.97" length="8.14" shape="6.52,49.46 7.02,48.58 9.74,46.88 13.61,46.26"/>
    </edge>
    <edge id=":gneJ1_2" function="internal">
        <lane id=":gneJ1_2_0" index="0" speed="6.48" length="9.04" shape="13.66,49.46 11.21,49.85 9.48,50.93 8.48,52.71 8.20,55.17"/>
    </edge>
    <edge id=":gneJ1_3" function="internal">
        <lane id=":gneJ1_3_0" index="0" speed="7.97" length="14.26" shape="13.66,49.46 9.77,48.97 7.00,47.34 5.34,44.59 4.79,40.71"/>
    </edge>
    <edge id=":gneJ1_4" function="internal">
        <lane id=":gneJ1_4_0" index="0" speed="6.47" length="9.03" shape="7.99,40.72 8.34,43.18 9.39,44.92 11.15,45.95 13.61,46.26"/>
    </edge>
    <edge id=":gneJ1_5" function="internal">
        <lane id=":gneJ1_5_0" index="0" speed="13.89" length="14.45" shape="7.99,40.72 8.20,55.17"/>
    </edge>
    <edge id=":gneJ10_0" function="internal">
        <lane id=":gneJ10_0_0" index="0" speed="6.77" length="8.28" shape="61.09,3.90 58.76,4.44 57.04,5.45 55.92,6.94 55.41,8.90"/>
    </edge>
    <edge id=":gneJ10_1" function="internal">
        <lane id=":gneJ10_1_0" index="0" speed="13.89" length="14.14" shape="61.09,3.90 57.49,4.23 54.04,4.37 50.59,4.35 46.98,4.17"/>
    </edge>
    <edge id=":gneJ10_2" function="internal">
        <lane id=":gneJ10_2_0" index="0" speed="13.89" length="13.56" shape="47.19,0.98 50.71,1.16 53.97,1.19 57.22,1.05 60.73,0.72"/>
    </edge>
    <edge id=":gneJ10_3" function="internal">
        <lane id=":gneJ10_3_0" index="0" speed="7.63" length="6.03" shape="47.19,0.98 51.05,1.70 52.87,2.76"/>
    </edge>
    <edge id=":gneJ10_6" function="internal">
        <lane id=":gneJ10_6_0" index="0" speed="7.63" length="7.04" shape="52.87,2.76 53.71,3.26 55.16,5.66 55.41,8.90"/>
    </edge>
    <edge id=":gneJ10_4" function="internal">
        <lane id=":gneJ10_4_0" index="0" speed="6.05" length="7.82" shape="52.23,8.60 52.04,6.80 51.11,5.47 49.42,4.59 46.98,4.17"/>
    </edge>
    <edge id=":gneJ10_5" function="internal">
        <lane id=":gneJ10_5_0" index="0" speed="8.24" length="12.69" shape="52.23,8.60 53.01,5.49 54.68,3.14 57.26,1.55 60.73,0.72"/>
    </edge>
    <edge id=":gneJ11_0" function="internal">
        <lane id=":gneJ11_0_0" index="0" speed="13.89" length="0.50" shape="64.30,3.61 64.16,3.58 64.06,3.57 63.96,3.57 63.81,3.59"/>
    </edge>
    <edge id=":gneJ11_1" function="internal">
        <lane id=":gneJ11_1_0" index="0" speed="13.09" length="1.50" shape="63.44,0.41 63.89,0.36 64.19,0.35 64.50,0.39 64.93,0.47"/>
    </edge>
    <edge id=":gneJ12_0" function="internal">
        <lane id=":gneJ12_0_0" index="0" speed="13.89" length="1.39" shape="74.50,5.45 74.09,5.48 73.80,5.48 73.52,5.45 73.12,5.37"/>
    </edge>
    <edge id=":gneJ12_1" function="internal">
        <lane id=":gneJ12_1_0" index="0" speed="13.89" length="0.46" shape="73.75,2.24 73.88,2.26 73.98,2.27 74.07,2.27 74.21,2.26"/>
    </edge>
    <edge id=":gneJ13_0" function="internal">
        <lane id=":gneJ13_0_0" index="0" speed="13.89" length="0.15" shape="86.31,4.38 86.27,4.38 86.24,4.38 86.21,4.38 86.17,4.39"/>
    </edge>
    <edge id=":gneJ13_1" function="internal">
        <lane id=":gneJ13_1_0" index="0" speed="13.89" length="0.44" shape="85.88,1.20 86.00,1.19 86.09,1.18 86.18,1.18 86.31,1.18"/>
    </edge>
    <edge id=":gneJ14_0" function="internal">
        <lane id=":gneJ14_0_0" index="0" speed="13.89" length="0.30" shape="97.50,4.37 97.20,4.38"/>
    </edge>
    <edge id=":gneJ14_1" function="internal">
        <lane id=":gneJ14_1_0" index="0" speed="13.89" length="0.20" shape="97.20,1.18 97.40,1.18"/>
    </edge>
    <edge id=":gneJ15_0" function="internal">
        <lane id=":gneJ15_0_0" index="0" speed="13.89" length="0.20" shape="106.38,4.10 106.18,4.10"/>
    </edge>
    <edge id=":gneJ15_1" function="internal">
        <lane id=":gneJ15_1_0" index="0" speed="13.89" length="0.30" shape="106.08,0.91 106.38,0.90"/>
    </edge>
    <edge id=":gneJ16_0" function="internal">
        <lane id=":gneJ16_0_0" index="0" speed="13.89" length="0.30" shape="115.35,4.10 115.05,4.10"/>
    </edge>
    <edge id=":gneJ16_1" function="internal">
        <lane id=":gneJ16_1_0" index="0" speed="13.89" length="0.21" shape="115.05,0.90 115.26,0.90"/>
    </edge>
    <edge id=":gneJ21_0" function="internal">
        <lane id=":gneJ21_0_0" index="0" speed="13.89" length="0.19" shape="134.48,3.55 134.42,3.55 134.38,3.55 134.34,3.55 134.29,3.55"/>
    </edge>
    <edge id=":gneJ21_1" function="internal">
        <lane id=":gneJ21_1_0" index="0" speed="13.89" length="0.57" shape="134.19,0.35 134.36,0.34 134.48,0.34 134.59,0.35 134.76,0.37"/>
    </edge>
    <edge id=":gneJ22_0" function="internal">
        <lane id=":gneJ22_0_0" index="0" speed="13.89" length="0.70" shape="150.38,4.92 150.17,4.93 150.03,4.94 149.88,4.93 149.68,4.91"/>
    </edge>
    <edge id=":gneJ22_1" function="internal">
        <lane id=":gneJ22_1_0" index="0" speed="13.89" length="0.23" shape="149.96,1.72 150.03,1.73 150.08,1.73 150.13,1.73 150.20,1.73"/>
    </edge>
    <edge id=":gneJ23_0" function="internal">
        <lane id=":gneJ23_0_0" index="0" speed="13.89" length="0.31" shape="165.09,4.09 164.78,4.11"/>
    </edge>
    <edge id=":gneJ23_1" function="internal">
        <lane id=":gneJ23_1_0" index="0" speed="13.89" length="0.28" shape="164.60,0.91 164.88,0.89"/>
    </edge>
    <edge id=":gneJ24_0" function="internal">
        <lane id=":gneJ24_0_0" index="0" speed="13.89" length="0.17" shape="181.96,2.99 181.91,2.99 181.88,2.99 181.85,2.99 181.80,2.99"/>
    </edge>
    <edge id=":gneJ24_1" function="internal">
        <lane id=":gneJ24_1_0" index="0" speed="13.89" length="0.50" shape="181.59,-0.20 181.73,-0.21 181.84,-0.21 181.94,-0.21 182.08,-0.21"/>
    </edge>
    <edge id=":gneJ25_0" function="internal">
        <lane id=":gneJ25_0_0" index="0" speed="13.89" length="0.10" shape="196.68,3.54 196.58,3.54"/>
    </edge>
    <edge id=":gneJ25_1" function="internal">
        <lane id=":gneJ25_1_0" index="0" speed="13.89" length="0.10" shape="196.70,0.34 196.61,0.34"/>
    </edge>
    <edge id=":gneJ26_0" function="internal">
        <lane id=":gneJ26_0_0" index="0" speed="6.07" length="8.41" shape="205.57,0.14 207.90,0.43 209.49,1.39 210.34,3.05 210.46,5.39"/>
    </edge>
    <edge id=":gneJ26_1" function="internal">
        <lane id=":gneJ26_1_0" index="0" speed="3.90" length="2.80" shape="207.27,5.09 207.23,4.31 206.95,3.76 206.42,3.44 205.64,3.34"/>
    </edge>
    <edge id=":gneJ27_0" function="internal">
        <lane id=":gneJ27_0_0" index="0" speed="6.97" length="9.51" shape="215.44,15.47 212.77,15.73 210.74,16.68 209.36,18.32 208.63,20.65"/>
    </edge>
    <edge id=":gneJ27_1" function="internal">
        <lane id=":gneJ27_1_0" index="0" speed="7.89" length="14.44" shape="215.44,15.47 211.51,14.79 208.82,13.01 207.38,10.12 207.18,6.13"/>
    </edge>
    <edge id=":gneJ27_2" function="internal">
        <lane id=":gneJ27_2_0" index="0" speed="6.37" length="9.04" shape="210.36,6.43 210.49,8.92 211.39,10.73 213.07,11.85 215.54,12.27"/>
    </edge>
    <edge id=":gneJ27_3" function="internal">
        <lane id=":gneJ27_3_0" index="0" speed="13.89" length="14.33" shape="210.36,6.43 208.63,20.65"/>
    </edge>
    <edge id=":gneJ27_4" function="internal">
        <lane id=":gneJ27_4_0" index="0" speed="13.89" length="14.14" shape="205.46,20.16 207.18,6.13"/>
    </edge>
    <edge id=":gneJ27_5" function="internal">
        <lane id=":gneJ27_5_0" index="0" speed="8.39" length="5.46" shape="205.46,20.16 206.56,16.62 207.67,15.26"/>
    </edge>
    <edge id=":gneJ27_6" function="internal">
        <lane id=":gneJ27_6_0" index="0" speed="8.39" length="8.76" shape="207.67,15.26 208.61,14.12 211.60,12.67 215.54,12.27"/>
    </edge>
    <edge id=":gneJ28_0" function="internal">
        <lane id=":gneJ28_0_0" index="0" speed="6.14" length="6.26" shape="208.45,33.11 207.60,33.50 206.86,34.52 206.22,36.15 205.69,38.40"/>
    </edge>
    <edge id=":gneJ28_1" function="internal">
        <lane id=":gneJ28_1_0" index="0" speed="6.79" length="11.77" shape="208.45,33.11 206.34,32.69 205.05,30.95 204.58,27.91 204.94,23.55"/>
    </edge>
    <edge id=":gneJ28_2" function="internal">
        <lane id=":gneJ28_2_0" index="0" speed="5.61" length="7.63" shape="208.10,24.04 207.95,26.63 208.41,28.43 209.49,29.44 211.18,29.65"/>
    </edge>
    <edge id=":gneJ28_3" function="internal">
        <lane id=":gneJ28_3_0" index="0" speed="13.89" length="14.56" shape="208.10,24.04 205.69,38.40"/>
    </edge>
    <edge id=":gneJ28_4" function="internal">
        <lane id=":gneJ28_4_0" index="0" speed="13.89" length="14.46" shape="202.54,37.81 204.94,23.55"/>
    </edge>
    <edge id=":gneJ28_5" function="internal">
        <lane id=":gneJ28_5_0" index="0" speed="8.54" length="5.96" shape="202.54,37.81 203.61,34.49 205.06,32.49"/>
    </edge>
    <edge id=":gneJ28_6" function="internal">
        <lane id=":gneJ28_6_0" index="0" speed="8.54" length="6.92" shape="205.06,32.49 205.40,32.02 207.93,30.41 211.18,29.65"/>
    </edge>
    <edge id=":gneJ29_0" function="internal">
        <lane id=":gneJ29_0_0" index="0" speed="6.07" length="8.58" shape="205.85,50.00 203.49,49.56 201.95,48.47 201.23,46.73 201.33,44.33"/>
    </edge>
    <edge id=":gneJ29_1" function="internal">
        <lane id=":gneJ29_1_0" index="0" speed="3.90" length="2.86" shape="204.47,44.91 204.44,45.71 204.68,46.29 205.20,46.66 205.98,46.80"/>
    </edge>
    <edge id=":gneJ3_0" function="internal">
        <lane id=":gneJ3_0_0" index="0" speed="13.89" length="0.26" shape="24.09,49.30 23.83,49.30"/>
    </edge>
    <edge id=":gneJ3_1" function="internal">
        <lane id=":gneJ3_1_0" index="0" speed="13.89" length="0.31" shape="23.78,46.10 24.09,46.10"/>
    </edge>
    <edge id=":gneJ36_0" function="internal">
        <lane id=":gneJ36_0_0" index="0" speed="6.29" length="8.25" shape="60.62,16.58 58.05,16.78 56.18,17.53 55.03,18.84 54.58,20.71"/>
    </edge>
    <edge id=":gneJ36_1" function="internal">
        <lane id=":gneJ36_1_0" index="0" speed="7.57" length="13.24" shape="60.62,16.58 56.67,16.00 53.95,14.51 52.46,12.11 52.21,8.80"/>
    </edge>
    <edge id=":gneJ36_2" function="internal">
        <lane id=":gneJ36_2_0" index="0" speed="5.98" length="7.84" shape="55.39,9.10 55.58,10.92 56.52,12.23 58.24,13.06 60.71,13.38"/>
    </edge>
    <edge id=":gneJ36_3" function="internal">
        <lane id=":gneJ36_3_0" index="0" speed="13.89" length="11.63" shape="55.39,9.10 54.58,20.71"/>
    </edge>
    <edge id=":gneJ36_4" function="internal">
        <lane id=":gneJ36_4_0" index="0" speed="13.89" length="11.79" shape="51.38,20.56 52.21,8.80"/>
    </edge>
    <edge id=":gneJ36_5" function="internal">
        <lane id=":gneJ36_5_0" index="0" speed="7.82" length="5.30" shape="51.38,20.56 52.09,17.33 53.32,15.76"/>
    </edge>
    <edge id=":gneJ36_6" function="internal">
        <lane id=":gneJ36_6_0" index="0" speed="7.82" length="8.04" shape="53.32,15.76 53.88,15.05 56.75,13.74 60.71,13.38"/>
    </edge>
    <edge id=":gneJ37_0" function="internal">
        <lane id=":gneJ37_0_0" index="0" speed="13.89" length="10.94" shape="51.36,31.69 51.21,28.58 51.17,26.23 51.23,23.87 51.37,20.76"/>
    </edge>
    <edge id=":gneJ37_1" function="internal">
        <lane id=":gneJ37_1_0" index="0" speed="7.47" length="4.39" shape="51.36,31.69 51.77,28.97 52.79,27.69"/>
    </edge>
    <edge id=":gneJ37_6" function="internal">
        <lane id=":gneJ37_6_0" index="0" speed="7.47" length="7.99" shape="52.79,27.69 53.36,26.96 56.14,25.68 60.11,25.11"/>
    </edge>
    <edge id=":gneJ37_2" function="internal">
        <lane id=":gneJ37_2_0" index="0" speed="5.87" length="7.23" shape="60.26,28.31 57.70,28.61 55.89,29.24 54.85,30.20 54.56,31.50"/>
    </edge>
    <edge id=":gneJ37_3" function="internal">
        <lane id=":gneJ37_3_0" index="0" speed="7.59" length="13.56" shape="60.26,28.31 56.23,27.99 53.41,26.63 51.79,24.22 51.37,20.76"/>
    </edge>
    <edge id=":gneJ37_4" function="internal">
        <lane id=":gneJ37_4_0" index="0" speed="6.01" length="8.06" shape="54.57,20.91 54.84,22.84 55.85,24.19 57.61,24.95 60.11,25.11"/>
    </edge>
    <edge id=":gneJ37_5" function="internal">
        <lane id=":gneJ37_5_0" index="0" speed="13.89" length="10.60" shape="54.57,20.91 54.43,23.97 54.36,26.20 54.40,28.44 54.56,31.50"/>
    </edge>
    <edge id=":gneJ38_0" function="internal">
        <lane id=":gneJ38_0_0" index="0" speed="13.89" length="11.38" shape="51.64,43.27 51.38,31.89"/>
    </edge>
    <edge id=":gneJ38_1" function="internal">
        <lane id=":gneJ38_1_0" index="0" speed="8.14" length="5.63" shape="51.64,43.27 52.19,39.51 53.12,37.93"/>
    </edge>
    <edge id=":gneJ38_6" function="internal">
        <lane id=":gneJ38_6_0" index="0" speed="8.14" length="8.46" shape="53.12,37.93 53.81,36.75 56.52,35.00 60.31,34.26"/>
    </edge>
    <edge id=":gneJ38_2" function="internal">
        <lane id=":gneJ38_2_0" index="0" speed="6.67" length="9.13" shape="60.49,37.45 58.02,37.93 56.26,39.06 55.20,40.84 54.84,43.27"/>
    </edge>
    <edge id=":gneJ38_3" function="internal">
        <lane id=":gneJ38_3_0" index="0" speed="7.43" length="12.05" shape="60.49,37.45 56.64,37.29 53.84,36.31 52.08,34.51 51.38,31.89"/>
    </edge>
    <edge id=":gneJ38_4" function="internal">
        <lane id=":gneJ38_4_0" index="0" speed="5.81" length="6.96" shape="54.57,31.70 55.00,32.93 56.09,33.77 57.87,34.21 60.31,34.26"/>
    </edge>
    <edge id=":gneJ38_5" function="internal">
        <lane id=":gneJ38_5_0" index="0" speed="13.89" length="11.57" shape="54.57,31.70 54.84,43.27"/>
    </edge>
    <edge id=":gneJ39_0" function="internal">
        <lane id=":gneJ39_0_0" index="0" speed="6.07" length="7.86" shape="56.55,51.46 54.40,51.20 52.87,50.31 51.95,48.80 51.64,46.66"/>
    </edge>
    <edge id=":gneJ39_1" function="internal">
        <lane id=":gneJ39_1_0" index="0" speed="3.90" length="2.62" shape="54.84,46.66 54.95,47.37 55.25,47.88 55.76,48.17 56.48,48.26"/>
    </edge>
    <edge id=":gneJ4_0" function="internal">
        <lane id=":gneJ4_0_0" index="0" speed="6.07" length="7.86" shape="39.43,44.39 39.17,46.54 38.28,48.07 36.77,48.99 34.63,49.30"/>
    </edge>
    <edge id=":gneJ4_1" function="internal">
        <lane id=":gneJ4_1_0" index="0" speed="3.90" length="2.62" shape="34.63,46.10 35.34,45.99 35.85,45.69 36.14,45.18 36.23,44.46"/>
    </edge>
    <edge id=":gneJ45_0" function="internal">
        <lane id=":gneJ45_0_0" index="0" speed="13.89" length="0.35" shape="62.38,51.32 62.03,51.34"/>
    </edge>
    <edge id=":gneJ45_1" function="internal">
        <lane id=":gneJ45_1_0" index="0" speed="13.89" length="0.12" shape="61.96,48.14 62.08,48.13"/>
    </edge>
    <edge id=":gneJ46_0" function="internal">
        <lane id=":gneJ46_0_0" index="0" speed="3.65" length="4.67" shape="69.55,47.43 70.82,48.11 71.29,48.87 70.97,49.71 69.85,50.61"/>
    </edge>
    <edge id=":gneJ47_0" function="internal">
        <lane id=":gneJ47_0_0" index="0" speed="13.89" length="0.10" shape="62.97,37.31 63.06,37.30"/>
    </edge>
    <edge id=":gneJ47_1" function="internal">
        <lane id=":gneJ47_1_0" index="0" speed="13.89" length="0.10" shape="62.88,34.11 62.97,34.11"/>
    </edge>
    <edge id=":gneJ48_0" function="internal">
        <lane id=":gneJ48_0_0" index="0" speed="3.65" length="4.67" shape="71.28,34.11 72.48,34.91 72.88,35.71 72.48,36.51 71.28,37.31"/>
    </edge>
    <edge id=":gneJ49_0" function="internal">
        <lane id=":gneJ49_0_0" index="0" speed="13.89" length="0.31" shape="64.07,28.13 63.76,28.15"/>
    </edge>
    <edge id=":gneJ49_1" function="internal">
        <lane id=":gneJ49_1_0" index="0" speed="13.89" length="0.28" shape="63.61,24.95 63.89,24.94"/>
    </edge>
    <edge id=":gneJ5_0" function="internal">
        <lane id=":gneJ5_0_0" index="0" speed="13.89" length="0.28" shape="36.03,35.04 36.02,34.77"/>
    </edge>
    <edge id=":gneJ5_1" function="internal">
        <lane id=":gneJ5_1_0" index="0" speed="13.89" length="0.31" shape="39.22,34.66 39.22,34.98"/>
    </edge>
    <edge id=":gneJ50_0" function="internal">
        <lane id=":gneJ50_0_0" index="0" speed="3.65" length="4.67" shape="71.62,24.52 72.86,25.25 73.30,26.03 72.95,26.85 71.79,27.71"/>
    </edge>
    <edge id=":gneJ51_0" function="internal">
        <lane id=":gneJ51_0_0" index="0" speed="13.89" length="0.28" shape="64.67,16.69 64.40,16.69"/>
    </edge>
    <edge id=":gneJ51_1" function="internal">
        <lane id=":gneJ51_1_0" index="0" speed="13.89" length="0.14" shape="64.49,13.49 64.63,13.49"/>
    </edge>
    <edge id=":gneJ52_0" function="internal">
        <lane id=":gneJ52_0_0" index="0" speed="3.65" length="4.67" shape="78.47,13.28 79.68,14.06 80.09,14.86 79.70,15.66 78.51,16.48"/>
    </edge>
    <edge id=":gneJ54_0" function="internal">
        <lane id=":gneJ54_0_0" index="0" speed="13.89" length="0.31" shape="214.67,50.34 214.35,50.34"/>
    </edge>
    <edge id=":gneJ54_1" function="internal">
        <lane id=":gneJ54_1_0" index="0" speed="13.89" length="0.10" shape="214.48,47.14 214.59,47.15"/>
    </edge>
    <edge id=":gneJ55_0" function="internal">
        <lane id=":gneJ55_0_0" index="0" speed="3.65" length="4.67" shape="223.71,46.92 224.93,47.69 225.35,48.48 224.97,49.29 223.79,50.12"/>
    </edge>
    <edge id=":gneJ56_0" function="internal">
        <lane id=":gneJ56_0_0" index="0" speed="13.89" length="2.95" shape="211.59,32.82 208.65,33.09"/>
    </edge>
    <edge id=":gneJ56_1" function="internal">
        <lane id=":gneJ56_1_0" index="0" speed="13.89" length="0.10" shape="211.38,29.63 211.46,29.63"/>
    </edge>
    <edge id=":gneJ57_0" function="internal">
        <lane id=":gneJ57_0_0" index="0" speed="3.65" length="4.67" shape="222.99,29.16 224.22,29.92 224.65,30.70 224.28,31.51 223.12,32.36"/>
    </edge>
    <edge id=":gneJ58_0" function="internal">
        <lane id=":gneJ58_0_0" index="0" speed="13.89" length="0.17" shape="217.53,15.54 217.36,15.53"/>
    </edge>
    <edge id=":gneJ58_1" function="internal">
        <lane id=":gneJ58_1_0" index="0" speed="13.89" length="0.29" shape="217.45,12.33 217.74,12.34"/>
    </edge>
    <edge id=":gneJ59_0" function="internal">
        <lane id=":gneJ59_0_0" index="0" speed="3.65" length="4.67" shape="228.00,13.03 229.15,13.91 229.49,14.73 229.04,15.50 227.79,16.22"/>
    </edge>
    <edge id=":gneJ6_0" function="internal">
        <lane id=":gneJ6_0_0" index="0" speed="13.89" length="0.12" shape="35.75,26.38 35.74,26.27"/>
    </edge>
    <edge id=":gneJ6_1" function="internal">
        <lane id=":gneJ6_1_0" index="0" speed="13.89" length="0.35" shape="38.92,25.93 38.95,26.28"/>
    </edge>
    <edge id=":gneJ7_0" function="internal">
        <lane id=":gneJ7_0_0" index="0" speed="13.89" length="0.20" shape="34.37,13.39 34.35,13.20"/>
    </edge>
    <edge id=":gneJ7_1" function="internal">
        <lane id=":gneJ7_1_0" index="0" speed="13.89" length="0.30" shape="37.52,12.76 37.55,13.06"/>
    </edge>
    <edge id=":gneJ8_0" function="internal">
        <lane id=":gneJ8_0_0" index="0" speed="6.07" length="8.25" shape="33.45,6.74 33.46,4.45 34.22,2.78 35.72,1.73 37.97,1.29"/>
    </edge>
    <edge id=":gneJ8_1" function="internal">
        <lane id=":gneJ8_1_0" index="0" speed="3.90" length="2.75" shape="38.13,4.49 37.38,4.63 36.88,4.98 36.62,5.54 36.62,6.30"/>
    </edge>
    <edge id=":gneJ9_0" function="internal">
        <lane id=":gneJ9_0_0" index="0" speed="13.89" length="0.18" shape="46.07,4.11 46.01,4.11 45.98,4.10 45.94,4.11 45.88,4.11"/>
    </edge>
    <edge id=":gneJ9_1" function="internal">
        <lane id=":gneJ9_1_0" index="0" speed="13.89" length="0.55" shape="45.73,0.91 45.89,0.90 46.01,0.90 46.12,0.91 46.28,0.92"/>
    </edge>

    <edge id="A_Entrance1" from="gneJ22" to="gneJ21" priority="-1">
        <lane id="A_Entrance1_0" index="0" speed="13.89" length="15.26" shape="149.68,4.91 134.48,3.55"/>
    </edge>
    <edge id="A_Entrance_0" from="gneJ3" to="gneJ4" priority="-1">
        <lane id="A_Entrance_0_0" index="0" speed="13.89" length="10.54" shape="24.09,46.10 34.63,46.10"/>
    </edge>
    <edge id="B_Entrance_0" from="gneJ21" to="gneJ22" priority="-1">
        <lane id="B_Entrance_0_0" index="0" speed="13.89" length="15.26" shape="134.76,0.37 149.96,1.72"/>
    </edge>
    <edge id="P_A_1" from="gneJ45" to="gneJ46" priority="-1">
        <lane id="P_A_1_0" index="0" speed="13.89" length="7.51" shape="62.08,48.13 69.55,47.43"/>
    </edge>
    <edge id="P_A_2" from="gneJ47" to="gneJ48" priority="-1">
        <lane id="P_A_2_0" index="0" speed="13.89" length="8.30" shape="62.97,34.11 71.28,34.11"/>
    </edge>
    <edge id="P_A_3" from="gneJ49" to="gneJ50" priority="-1">
        <lane id="P_A_3_0" index="0" speed="13.89" length="7.74" shape="63.89,24.94 71.62,24.52"/>
    </edge>
    <edge id="P_A_4" from="gneJ51" to="gneJ52" priority="-1">
        <lane id="P_A_4_0" index="0" speed="13.89" length="13.84" shape="64.63,13.49 78.47,13.28"/>
    </edge>
    <edge id="P_B_1" from="gneJ58" to="gneJ59" priority="-1">
        <lane id="P_B_1_0" index="0" speed="13.89" length="10.28" shape="217.74,12.34 228.00,13.03"/>
    </edge>
    <edge id="P_B_2" from="gneJ56" to="gneJ57" priority="-1">
        <lane id="P_B_2_0" index="0" speed="13.89" length="11.54" shape="211.46,29.63 222.99,29.16"/>
    </edge>
    <edge id="P_B_3" from="gneJ54" to="gneJ55" priority="-1">
        <lane id="P_B_3_0" index="0" speed="13.89" length="9.12" shape="214.59,47.15 223.71,46.92"/>
    </edge>
    <edge id="gneE0" from="gneJ0" to="gneJ1" priority="-1">
        <lane id="gneE0_0" index="0" speed="13.89" length="34.56" shape="8.08,6.16 7.99,40.72"/>
    </edge>
    <edge id="gneE1" from="gneJ2" to="gneJ1" priority="-1">
        <lane id="gneE1_0" index="0" speed="13.89" length="36.85" shape="6.17,92.11 5.01,55.27"/>
    </edge>
    <edge id="gneE10" from="gneJ7" to="gneJ8" priority="-1">
        <lane id="gneE10_0" index="0" speed="13.89" length="6.52" shape="34.35,13.20 33.45,6.74"/>
    </edge>
    <edge id="gneE100" from="gneJ36" to="gneJ51" priority="-1">
        <lane id="gneE100_0" index="0" speed="13.89" length="3.78" shape="60.71,13.38 64.49,13.49"/>
    </edge>
    <edge id="gneE102" from="gneJ52" to="gneJ51" priority="-1">
        <lane id="gneE102_0" index="0" speed="13.89" length="13.84" shape="78.51,16.48 64.67,16.69"/>
    </edge>
    <edge id="gneE103" from="gneJ51" to="gneJ36" priority="-1">
        <lane id="gneE103_0" index="0" speed="13.89" length="3.78" shape="64.40,16.69 60.62,16.58"/>
    </edge>
    <edge id="gneE104" from="gneJ29" to="gneJ54" priority="-1">
        <lane id="gneE104_0" index="0" speed="13.89" length="8.51" shape="205.98,46.80 214.48,47.14"/>
    </edge>
    <edge id="gneE106" from="gneJ55" to="gneJ54" priority="-1">
        <lane id="gneE106_0" index="0" speed="13.89" length="9.12" shape="223.79,50.12 214.67,50.34"/>
    </edge>
    <edge id="gneE107" from="gneJ54" to="gneJ29" priority="-1">
        <lane id="gneE107_0" index="0" speed="13.89" length="8.51" shape="214.35,50.34 205.85,50.00"/>
    </edge>
    <edge id="gneE108" from="gneJ28" to="gneJ56" priority="-1">
        <lane id="gneE108_0" index="0" speed="13.89" length="0.20" shape="211.18,29.65 211.38,29.63"/>
    </edge>
    <edge id="gneE11" from="gneJ8" to="gneJ9" priority="-1">
        <lane id="gneE11_0" index="0" speed="13.89" length="7.77" shape="37.97,1.29 45.73,0.91"/>
    </edge>
    <edge id="gneE110" from="gneJ57" to="gneJ56" priority="-1">
        <lane id="gneE110_0" index="0" speed="13.89" length="11.54" shape="223.12,32.36 211.59,32.82"/>
    </edge>
    <edge id="gneE111" from="gneJ56" to="gneJ28" priority="-1">
        <lane id="gneE111_0" index="0" speed="13.89" length="0.20" shape="208.65,33.09 208.45,33.11"/>
    </edge>
    <edge id="gneE112" from="gneJ27" to="gneJ58" priority="-1">
        <lane id="gneE112_0" index="0" speed="13.89" length="1.92" shape="215.54,12.27 217.45,12.33"/>
    </edge>
    <edge id="gneE114" from="gneJ59" to="gneJ58" priority="-1">
        <lane id="gneE114_0" index="0" speed="13.89" length="10.28" shape="227.79,16.22 217.53,15.54"/>
    </edge>
    <edge id="gneE115" from="gneJ58" to="gneJ27" priority="-1">
        <lane id="gneE115_0" index="0" speed="13.89" length="1.92" shape="217.36,15.53 215.44,15.47"/>
    </edge>
    <edge id="gneE12" from="gneJ9" to="gneJ10" priority="-1">
        <lane id="gneE12_0" index="0" speed="13.89" length="0.91" shape="46.28,0.92 47.19,0.98"/>
    </edge>
    <edge id="gneE13" from="gneJ10" to="gneJ11" priority="-1">
        <lane id="gneE13_0" index="0" speed="13.89" length="2.73" shape="60.73,0.72 63.44,0.41"/>
    </edge>
    <edge id="gneE14" from="gneJ11" to="gneJ12" priority="-1">
        <lane id="gneE14_0" index="0" speed="13.89" length="8.99" shape="64.93,0.47 73.75,2.24"/>
    </edge>
    <edge id="gneE15" from="gneJ12" to="gneJ13" priority="-1">
        <lane id="gneE15_0" index="0" speed="13.89" length="11.72" shape="74.21,2.26 85.88,1.20"/>
    </edge>
    <edge id="gneE16" from="gneJ13" to="gneJ14" priority="-1">
        <lane id="gneE16_0" index="0" speed="13.89" length="10.89" shape="86.31,1.18 97.20,1.18"/>
    </edge>
    <edge id="gneE17" from="gneJ14" to="gneJ15" priority="-1">
        <lane id="gneE17_0" index="0" speed="13.89" length="8.68" shape="97.40,1.18 106.08,0.91"/>
    </edge>
    <edge id="gneE18" from="gneJ15" to="gneJ16" priority="-1">
        <lane id="gneE18_0" index="0" speed="13.89" length="8.67" shape="106.38,0.90 115.05,0.90"/>
    </edge>
    <edge id="gneE23" from="gneJ16" to="gneJ21" priority="-1">
        <lane id="gneE23_0" index="0" speed="13.89" length="18.94" shape="115.26,0.90 134.19,0.35"/>
    </edge>
    <edge id="gneE25" from="gneJ22" to="gneJ23" priority="-1">
        <lane id="gneE25_0" index="0" speed="13.89" length="14.43" shape="150.20,1.73 164.60,0.91"/>
    </edge>
    <edge id="gneE26" from="gneJ23" to="gneJ24" priority="-1">
        <lane id="gneE26_0" index="0" speed="13.89" length="16.74" shape="164.88,0.89 181.59,-0.20"/>
    </edge>
    <edge id="gneE27" from="gneJ24" to="gneJ25" priority="-1">
        <lane id="gneE27_0" index="0" speed="13.89" length="14.63" shape="182.08,-0.21 196.70,0.34"/>
    </edge>
    <edge id="gneE28" from="gneJ25" to="gneJ26" priority="-1">
        <lane id="gneE28_0" index="0" speed="13.89" length="8.97" shape="196.61,0.34 205.57,0.14"/>
    </edge>
    <edge id="gneE29" from="gneJ26" to="gneJ27" priority="-1">
        <lane id="gneE29_0" index="0" speed="13.89" length="1.05" shape="210.46,5.39 210.36,6.43"/>
    </edge>
    <edge id="gneE3" from="gneJ1" to="gneJ0" priority="-1">
        <lane id="gneE3_0" index="0" speed="13.89" length="34.56" shape="4.79,40.71 4.88,6.15"/>
    </edge>
    <edge id="gneE30" from="gneJ27" to="gneJ28" priority="-1">
        <lane id="gneE30_0" index="0" speed="13.89" length="3.43" shape="208.63,20.65 208.10,24.04"/>
    </edge>
    <edge id="gneE31" from="gneJ28" to="gneJ29" priority="-1">
        <lane id="gneE31_0" index="0" speed="13.89" length="6.62" shape="205.69,38.40 204.47,44.91"/>
    </edge>
    <edge id="gneE32" from="gneJ29" to="gneJ28" priority="-1">
        <lane id="gneE32_0" index="0" speed="13.89" length="6.62" shape="201.33,44.33 202.54,37.81"/>
    </edge>
    <edge id="gneE33" from="gneJ28" to="gneJ27" priority="-1">
        <lane id="gneE33_0" index="0" speed="13.89" length="3.43" shape="204.94,23.55 205.46,20.16"/>
    </edge>
    <edge id="gneE34" from="gneJ27" to="gneJ26" priority="-1">
        <lane id="gneE34_0" index="0" speed="13.89" length="1.05" shape="207.18,6.13 207.27,5.09"/>
    </edge>
    <edge id="gneE4" from="gneJ1" to="gneJ3" priority="-1">
        <lane id="gneE4_0" index="0" speed="13.89" length="10.18" shape="13.61,46.26 23.78,46.10"/>
    </edge>
    <edge id="gneE47" from="gneJ10" to="gneJ36" priority="-1">
        <lane id="gneE47_0" index="0" speed="13.89" length="0.20" shape="55.41,8.90 55.39,9.10"/>
    </edge>
    <edge id="gneE48" from="gneJ36" to="gneJ37" priority="-1">
        <lane id="gneE48_0" index="0" speed="13.89" length="0.20" shape="54.58,20.71 54.57,20.91"/>
    </edge>
    <edge id="gneE49" from="gneJ37" to="gneJ38" priority="-1">