<?xml version="1.0" encoding="UTF-8"?>

<!-- generated on 02/12/20 14:09:31 by Eclipse SUMO netedit Version 1.3.1
<configuration xmlns:xsi="http://www.w3.org/2001/XMLSchema-instance" xsi:noNamespaceSchemaLocation="http://sumo.dlr.de/xsd/netconvertConfiguration.xsd">

    <input>
        <sumo-net-file value="Z:\Work\Sumo\sumo_apis\simple_parking\networks\mall\mall.net.xml"/>
    </input>

    <output>
        <output-file value="Z:\Work\Sumo\sumo_apis\simple_parking\networks\mall\mall.net.xml"/>
    </output>

    <processing>
        <geometry.max-grade.fix value="false"/>
        <offset.disable-normalization value="true"/>
        <opposites.guess.fix-lengths value="true"/>
        <lefthand value="false"/>
    </processing>

    <junctions>
        <no-turnarounds value="true"/>
        <junctions.corner-detail value="5"/>
        <junctions.limit-turn-speed value="5.5"/>
        <rectangular-lane-cut value="false"/>
    </junctions>

    <pedestrian>
        <walkingareas value="false"/>
    </pedestrian>

</configuration>
-->

<net version="1.3" junctionCornerDetail="5" limitTurnSpeed="5.50" xmlns:xsi="http://www.w3.org/2001/XMLSchema-instance" xsi:noNamespaceSchemaLocation="http://sumo.dlr.de/xsd/net_file.xsd">

    <location netOffset="0.00,0.00" convBoundary="6.10,-36.56,227.90,92.06" origBoundary="-10000000000.00,-10000000000.00,10000000000.00,10000000000.00" projParameter="!"/>

    <edge id=":gneJ0_0" function="internal">
        <lane id=":gneJ0_0_0" index="0" speed="13.89" length="0.31" shape="8.08,5.85 8.08,6.16"/>
    </edge>
    <edge id=":gneJ0_1" function="internal">
        <lane id=":gneJ0_1_0" index="0" speed="13.89" length="0.28" shape="4.88,6.15 4.88,5.88"/>
    </edge>
    <edge id=":gneJ1_0" function="internal">
        <lane id=":gneJ1_0_0" index="0" speed="13.89" length="14.56" shape="5.01,55.28 4.80,40.72"/>
    </edge>
    <edge id=":gneJ1_1" function="internal">
        <lane id=":gneJ1_1_0" index="0" speed="7.98" length="6.12" shape="5.01,55.28 5.44,51.39 6.52,49.47"/>
    </edge>
    <edge id=":gneJ1_6" function="internal">
        <lane id=":gneJ1_6_0" index="0" speed="7.98" length="8.14" shape="6.52,49.47 7.02,48.59 9.74,46.88 13.61,46.26"/>
    </edge>
    <edge id=":gneJ1_2" function="internal">
        <lane id=":gneJ1_2_0" index="0" speed="6.48" length="9.04" shape="13.66,49.46 11.21,49.85 9.48,50.94 8.48,52.71 8.21,55.18"/>
    </edge>
    <edge id=":gneJ1_3" function="internal">
        <lane id=":gneJ1_3_0" index="0" speed="7.97" length="14.26" shape="13.66,49.46 9.78,48.97 7.00,47.35 5.34,44.60 4.80,40.72"/>
    </edge>
    <edge id=":gneJ1_4" function="internal">
        <lane id=":gneJ1_4_0" index="0" speed="6.47" length="9.03" shape="8.00,40.72 8.34,43.18 9.39,44.92 11.15,45.95 13.61,46.26"/>
    </edge>
    <edge id=":gneJ1_5" function="internal">
        <lane id=":gneJ1_5_0" index="0" speed="13.89" length="14.45" shape="8.00,40.72 8.21,55.18"/>
    </edge>
    <edge id=":gneJ10_0" function="internal">
        <lane id=":gneJ10_0_0" index="0" speed="6.77" length="8.28" shape="61.09,3.90 58.76,4.44 57.04,5.45 55.92,6.94 55.41,8.91"/>
    </edge>
    <edge id=":gneJ10_1" function="internal">
        <lane id=":gneJ10_1_0" index="0" speed="13.89" length="14.14" shape="61.09,3.90 57.49,4.23 54.04,4.37 50.59,4.35 46.98,4.17"/>
    </edge>
    <edge id=":gneJ10_2" function="internal">
        <lane id=":gneJ10_2_0" index="0" speed="13.89" length="13.56" shape="47.19,0.98 50.71,1.16 53.97,1.19 57.22,1.05 60.73,0.72"/>
    </edge>
    <edge id=":gneJ10_3" function="internal">
        <lane id=":gneJ10_3_0" index="0" speed="7.63" length="6.03" shape="47.19,0.98 51.05,1.70 52.87,2.76"/>
    </edge>
    <edge id=":gneJ10_6" function="internal">
        <lane id=":gneJ10_6_0" index="0" speed="7.63" length="7.04" shape="52.87,2.76 53.70,3.26 55.16,5.66 55.41,8.91"/>
    </edge>
    <edge id=":gneJ10_4" function="internal">
        <lane id=":gneJ10_4_0" index="0" speed="6.05" length="7.82" shape="52.22,8.60 52.04,6.80 51.11,5.47 49.42,4.59 46.98,4.17"/>
    </edge>
    <edge id=":gneJ10_5" function="internal">
        <lane id=":gneJ10_5_0" index="0" speed="8.24" length="12.69" shape="52.22,8.60 53.00,5.49 54.68,3.14 57.26,1.55 60.73,0.72"/>
    </edge>
    <edge id=":gneJ11_0" function="internal">
        <lane id=":gneJ11_0_0" index="0" speed="13.89" length="0.50" shape="64.31,3.61 64.16,3.58 64.06,3.57 63.96,3.57 63.81,3.59"/>
    </edge>
    <edge id=":gneJ11_1" function="internal">
        <lane id=":gneJ11_1_0" index="0" speed="12.97" length="1.50" shape="63.45,0.41 63.89,0.36 64.20,0.35 64.50,0.39 64.94,0.47"/>
    </edge>
    <edge id=":gneJ12_0" function="internal">
        <lane id=":gneJ12_0_0" index="0" speed="13.89" length="1.39" shape="74.50,5.45 74.09,5.49 73.80,5.49 73.52,5.45 73.12,5.38"/>
    </edge>
    <edge id=":gneJ12_1" function="internal">
        <lane id=":gneJ12_1_0" index="0" speed="13.89" length="0.46" shape="73.75,2.24 73.88,2.27 73.98,2.28 74.07,2.28 74.21,2.26"/>
    </edge>
    <edge id=":gneJ13_0" function="internal">
        <lane id=":gneJ13_0_0" index="0" speed="13.89" length="0.15" shape="86.32,4.38 86.27,4.38 86.24,4.38 86.21,4.38 86.17,4.39"/>
    </edge>
    <edge id=":gneJ13_1" function="internal">
        <lane id=":gneJ13_1_0" index="0" speed="13.89" length="0.44" shape="85.88,1.20 86.01,1.19 86.10,1.18 86.19,1.18 86.32,1.18"/>
    </edge>
    <edge id=":gneJ14_0" function="internal">
        <lane id=":gneJ14_0_0" index="0" speed="13.89" length="0.30" shape="97.50,4.38 97.19,4.38"/>
    </edge>
    <edge id=":gneJ14_1" function="internal">
        <lane id=":gneJ14_1_0" index="0" speed="13.89" length="0.20" shape="97.19,1.18 97.40,1.18"/>
    </edge>
    <edge id=":gneJ15_0" function="internal">
        <lane id=":gneJ15_0_0" index="0" speed="13.89" length="0.20" shape="106.38,4.10 106.17,4.10"/>
    </edge>
    <edge id=":gneJ15_1" function="internal">
        <lane id=":gneJ15_1_0" index="0" speed="13.89" length="0.30" shape="106.07,0.90 106.38,0.90"/>
    </edge>
    <edge id=":gneJ16_0" function="internal">
        <lane id=":gneJ16_0_0" index="0" speed="13.89" length="0.30" shape="115.36,4.10 115.05,4.10"/>
    </edge>
    <edge id=":gneJ16_1" function="internal">
        <lane id=":gneJ16_1_0" index="0" speed="13.89" length="0.21" shape="115.05,0.90 115.26,0.90"/>
    </edge>
    <edge id=":gneJ21_0" function="internal">
        <lane id=":gneJ21_0_0" index="0" speed="13.89" length="0.19" shape="134.48,3.55 134.42,3.55 134.38,3.54 134.34,3.54 134.29,3.54"/>
    </edge>
    <edge id=":gneJ21_1" function="internal">
        <lane id=":gneJ21_1_0" index="0" speed="13.89" length="0.57" shape="134.19,0.35 134.36,0.34 134.48,0.34 134.59,0.35 134.76,0.36"/>
    </edge>
    <edge id=":gneJ22_0" function="internal">
        <lane id=":gneJ22_0_0" index="0" speed="13.89" length="0.70" shape="150.37,4.92 150.17,4.94 150.02,4.94 149.88,4.93 149.67,4.91"/>
    </edge>
    <edge id=":gneJ22_1" function="internal">
        <lane id=":gneJ22_1_0" index="0" speed="13.89" length="0.23" shape="149.96,1.73 150.03,1.73 150.08,1.73 150.12,1.73 150.19,1.73"/>
    </edge>
    <edge id=":gneJ23_0" function="internal">
        <lane id=":gneJ23_0_0" index="0" speed="13.89" length="0.31" shape="165.09,4.09 164.78,4.11"/>
    </edge>
    <edge id=":gneJ23_1" function="internal">
        <lane id=":gneJ23_1_0" index="0" speed="13.89" length="0.28" shape="164.60,0.91 164.88,0.89"/>
    </edge>
    <edge id=":gneJ24_0" function="internal">
        <lane id=":gneJ24_0_0" index="0" speed="13.89" length="0.17" shape="181.97,2.99 181.92,2.98 181.88,2.98 181.85,2.98 181.80,2.99"/>
    </edge>
    <edge id=":gneJ24_1" function="internal">
        <lane id=":gneJ24_1_0" index="0" speed="13.89" length="0.50" shape="181.59,-0.21 181.74,-0.21 181.84,-0.22 181.94,-0.22 182.09,-0.21"/>
    </edge>
    <edge id=":gneJ25_0" function="internal">
        <lane id=":gneJ25_0_0" index="0" speed="13.89" length="0.10" shape="196.68,3.54 196.58,3.54"/>
    </edge>
    <edge id=":gneJ25_1" function="internal">
        <lane id=":gneJ25_1_0" index="0" speed="13.89" length="0.10" shape="196.70,0.34 196.60,0.34"/>
    </edge>
    <edge id=":gneJ26_0" function="internal">
        <lane id=":gneJ26_0_0" index="0" speed="6.07" length="8.41" shape="205.57,0.14 207.90,0.42 209.49,1.39 210.34,3.05 210.46,5.39"/>
    </edge>
    <edge id=":gneJ26_1" function="internal">
        <lane id=":gneJ26_1_0" index="0" speed="3.90" length="2.80" shape="207.27,5.09 207.23,4.31 206.95,3.76 206.42,3.43 205.64,3.34"/>
    </edge>
    <edge id=":gneJ27_0" function="internal">
        <lane id=":gneJ27_0_0" index="0" speed="6.99" length="9.54" shape="215.47,15.44 212.78,15.71 210.75,16.67 209.36,18.31 208.63,20.64"/>
    </edge>
    <edge id=":gneJ27_1" function="internal">
        <lane id=":gneJ27_1_0" index="0" speed="7.88" length="14.46" shape="215.47,15.44 211.52,14.77 208.83,13.00 207.38,10.11 207.18,6.11"/>
    </edge>
    <edge id=":gneJ27_2" function="internal">
        <lane id=":gneJ27_2_0" index="0" speed="6.36" length="9.04" shape="210.36,6.41 210.49,8.91 211.39,10.71 213.08,11.82 215.55,12.24"/>
    </edge>
    <edge id=":gneJ27_3" function="internal">
        <lane id=":gneJ27_3_0" index="0" speed="13.89" length="14.33" shape="210.36,6.41 208.63,20.64"/>
    </edge>
    <edge id=":gneJ27_4" function="internal">
        <lane id=":gneJ27_4_0" index="0" speed="13.89" length="14.14" shape="205.46,20.15 207.18,6.11"/>
    </edge>
    <edge id=":gneJ27_5" function="internal">
        <lane id=":gneJ27_5_0" index="0" speed="8.41" length="5.46" shape="205.46,20.15 206.56,16.61 207.67,15.25"/>
    </edge>
    <edge id=":gneJ27_6" function="internal">
        <lane id=":gneJ27_6_0" index="0" speed="8.41" length="8.77" shape="207.67,15.25 208.61,14.11 211.60,12.65 215.55,12.24"/>
    </edge>
    <edge id=":gneJ28_0" function="internal">
        <lane id=":gneJ28_0_0" index="0" speed="7.51" length="10.20" shape="213.26,33.03 210.30,33.48 208.05,34.55 206.50,36.23 205.66,38.51"/>
    </edge>
    <edge id=":gneJ28_1" function="internal">
        <lane id=":gneJ28_1_0" index="0" speed="7.69" length="15.00" shape="213.26,33.03 209.05,32.62 206.25,30.93 204.87,27.97 204.91,23.73"/>
    </edge>
    <edge id=":gneJ28_2" function="internal">
        <lane id=":gneJ28_2_0" index="0" speed="6.12" length="9.06" shape="208.07,24.22 208.05,26.78 208.88,28.56 210.57,29.58 213.12,29.83"/>
    </edge>
    <edge id=":gneJ28_3" function="internal">
        <lane id=":gneJ28_3_0" index="0" speed="13.89" length="14.49" shape="208.07,24.22 205.66,38.51"/>
    </edge>
    <edge id=":gneJ28_4" function="internal">
        <lane id=":gneJ28_4_0" index="0" speed="13.89" length="14.39" shape="202.52,37.92 204.91,23.73"/>
    </edge>
    <edge id=":gneJ28_5" function="internal">
        <lane id=":gneJ28_5_0" index="0" speed="8.86" length="5.46" shape="202.52,37.92 203.72,34.54 204.95,33.13"/>
    </edge>
    <edge id=":gneJ28_6" function="internal">
        <lane id=":gneJ28_6_0" index="0" speed="8.86" length="9.08" shape="204.95,33.13 205.88,32.06 209.02,30.49 213.12,29.83"/>
    </edge>
    <edge id=":gneJ29_0" function="internal">
        <lane id=":gneJ29_0_0" index="0" speed="6.07" length="8.59" shape="205.86,49.99 203.49,49.56 201.95,48.47 201.23,46.72 201.33,44.32"/>
    </edge>
    <edge id=":gneJ29_1" function="internal">
        <lane id=":gneJ29_1_0" index="0" speed="3.90" length="2.86" shape="204.47,44.90 204.44,45.70 204.68,46.29 205.19,46.65 205.98,46.80"/>
    </edge>
    <edge id=":gneJ3_0" function="internal">
        <lane id=":gneJ3_0_0" index="0" speed="13.89" length="0.26" shape="24.09,49.30 23.83,49.30"/>
    </edge>
    <edge id=":gneJ3_1" function="internal">
        <lane id=":gneJ3_1_0" index="0" speed="13.89" length="0.31" shape="23.78,46.10 24.09,46.10"/>
    </edge>
    <edge id=":gneJ36_0" function="internal">
        <lane id=":gneJ36_0_0" index="0" speed="6.29" length="8.26" shape="60.62,16.58 58.05,16.78 56.18,17.53 55.03,18.84 54.58,20.71"/>
    </edge>
    <edge id=":gneJ36_1" function="internal">
        <lane id=":gneJ36_1_0" index="0" speed="7.57" length="13.24" shape="60.62,16.58 56.67,16.00 53.95,14.51 52.46,12.11 52.20,8.80"/>
    </edge>
    <edge id=":gneJ36_2" function="internal">
        <lane id=":gneJ36_2_0" index="0" speed="5.98" length="7.84" shape="55.39,9.11 55.57,10.92 56.52,12.24 58.23,13.06 60.71,13.38"/>
    </edge>
    <edge id=":gneJ36_3" function="internal">
        <lane id=":gneJ36_3_0" index="0" speed="13.89" length="11.63" shape="55.39,9.11 54.58,20.71"/>
    </edge>
    <edge id=":gneJ36_4" function="internal">
        <lane id=":gneJ36_4_0" index="0" speed="13.89" length="11.79" shape="51.38,20.57 52.20,8.80"/>
    </edge>
    <edge id=":gneJ36_5" function="internal">
        <lane id=":gneJ36_5_0" index="0" speed="7.82" length="5.30" shape="51.38,20.57 52.09,17.33 53.32,15.77"/>
    </edge>
    <edge id=":gneJ36_6" function="internal">
        <lane id=":gneJ36_6_0" index="0" speed="7.82" length="8.04" shape="53.32,15.77 53.88,15.06 56.75,13.74 60.71,13.38"/>
    </edge>
    <edge id=":gneJ37_0" function="internal">
        <lane id=":gneJ37_0_0" index="0" speed="13.89" length="10.93" shape="51.36,31.69 51.21,28.58 51.17,26.23 51.23,23.88 51.37,20.77"/>
    </edge>
    <edge id=":gneJ37_1" function="internal">
        <lane id=":gneJ37_1_0" index="0" speed="7.47" length="4.39" shape="51.36,31.69 51.77,28.96 52.79,27.69"/>
    </edge>
    <edge id=":gneJ37_6" function="internal">
        <lane id=":gneJ37_6_0" index="0" speed="7.47" length="7.99" shape="52.79,27.69 53.37,26.96 56.15,25.68 60.11,25.12"/>
    </edge>
    <edge id=":gneJ37_2" function="internal">
        <lane id=":gneJ37_2_0" index="0" speed="5.87" length="7.23" shape="60.25,28.31 57.70,28.61 55.90,29.24 54.85,30.20 54.56,31.50"/>
    </edge>
    <edge id=":gneJ37_3" function="internal">
        <lane id=":gneJ37_3_0" index="0" speed="7.60" length="13.55" shape="60.25,28.31 56.23,28.00 53.41,26.63 51.79,24.22 51.37,20.77"/>
    </edge>
    <edge id=":gneJ37_4" function="internal">
        <lane id=":gneJ37_4_0" index="0" speed="6.01" length="8.06" shape="54.57,20.91 54.84,22.85 55.85,24.19 57.61,24.95 60.11,25.12"/>
    </edge>
    <edge id=":gneJ37_5" function="internal">
        <lane id=":gneJ37_5_0" index="0" speed="13.89" length="10.59" shape="54.57,20.91 54.43,23.97 54.37,26.20 54.40,28.44 54.56,31.50"/>
    </edge>
    <edge id=":gneJ38_0" function="internal">
        <lane id=":gneJ38_0_0" index="0" speed="13.89" length="11.39" shape="51.64,43.27 51.38,31.89"/>
    </edge>
    <edge id=":gneJ38_1" function="internal">
        <lane id=":gneJ38_1_0" index="0" speed="8.14" length="5.63" shape="51.64,43.27 52.18,39.51 53.12,37.93"/>
    </edge>
    <edge id=":gneJ38_6" function="internal">
        <lane id=":gneJ38_6_0" index="0" speed="8.14" length="8.46" shape="53.12,37.93 53.81,36.76 56.52,35.00 60.32,34.26"/>
    </edge>
    <edge id=":gneJ38_2" function="internal">
        <lane id=":gneJ38_2_0" index="0" speed="6.67" length="9.14" shape="60.50,37.45 58.02,37.94 56.25,39.07 55.19,40.85 54.84,43.27"/>
    </edge>
    <edge id=":gneJ38_3" function="internal">
        <lane id=":gneJ38_3_0" index="0" speed="7.43" length="12.06" shape="60.50,37.45 56.64,37.29 53.84,36.31 52.08,34.51 51.38,31.89"/>
    </edge>
    <edge id=":gneJ38_4" function="internal">
        <lane id=":gneJ38_4_0" index="0" speed="5.81" length="6.97" shape="54.57,31.69 54.99,32.93 56.09,33.77 57.87,34.22 60.32,34.26"/>
    </edge>
    <edge id=":gneJ38_5" function="internal">
        <lane id=":gneJ38_5_0" index="0" speed="13.89" length="11.58" shape="54.57,31.69 54.84,43.27"/>
    </edge>
    <edge id=":gneJ39_0" function="internal">
        <lane id=":gneJ39_0_0" index="0" speed="6.07" length="7.86" shape="56.54,51.46 54.40,51.20 52.87,50.31 51.95,48.80 51.64,46.66"/>
    </edge>
    <edge id=":gneJ39_1" function="internal">
        <lane id=":gneJ39_1_0" index="0" speed="3.90" length="2.62" shape="54.84,46.66 54.94,47.37 55.25,47.88 55.76,48.17 56.47,48.26"/>
    </edge>
    <edge id=":gneJ4_0" function="internal">
        <lane id=":gneJ4_0_0" index="0" speed="6.07" length="7.86" shape="39.43,44.40 39.17,46.54 38.28,48.07 36.77,48.99 34.63,49.30"/>
    </edge>
    <edge id=":gneJ4_1" function="internal">
        <lane id=":gneJ4_1_0" index="0" speed="3.90" length="2.62" shape="34.63,46.10 35.34,46.00 35.85,45.69 36.14,45.18 36.23,44.47"/>
    </edge>
    <edge id=":gneJ45_0" function="internal">
        <lane id=":gneJ45_0_0" index="0" speed="13.89" length="0.35" shape="62.38,51.32 62.03,51.34"/>
    </edge>
    <edge id=":gneJ45_1" function="internal">
        <lane id=":gneJ45_1_0" index="0" speed="13.89" length="0.12" shape="61.96,48.14 62.08,48.14"/>
    </edge>
    <edge id=":gneJ46_0" function="internal">
        <lane id=":gneJ46_0_0" index="0" speed="3.65" length="4.67" shape="69.55,47.43 70.82,48.11 71.29,48.87 70.97,49.70 69.85,50.61"/>
    </edge>
    <edge id=":gneJ47_0" function="internal">
        <lane id=":gneJ47_0_0" index="0" speed="13.89" length="0.10" shape="62.97,37.31 63.06,37.31"/>
    </edge>
    <edge id=":gneJ47_1" function="internal">
        <lane id=":gneJ47_1_0" index="0" speed="13.89" length="0.10" shape="62.88,34.11 62.97,34.11"/>
    </edge>
    <edge id=":gneJ48_0" function="internal">
        <lane id=":gneJ48_0_0" index="0" speed="3.65" length="4.67" shape="71.28,34.11 72.48,34.91 72.88,35.71 72.48,36.51 71.28,37.31"/>
    </edge>
    <edge id=":gneJ49_0" function="internal">
        <lane id=":gneJ49_0_0" index="0" speed="13.89" length="0.31" shape="64.06,28.14 63.75,28.16"/>
    </edge>
    <edge id=":gneJ49_1" function="internal">
        <lane id=":gneJ49_1_0" index="0" speed="13.89" length="0.28" shape="63.61,24.96 63.89,24.94"/>
    </edge>
    <edge id=":gneJ5_0" function="internal">
        <lane id=":gneJ5_0_0" index="0" speed="13.89" length="0.28" shape="36.02,35.04 36.02,34.76"/>
    </edge>
    <edge id=":gneJ5_1" function="internal">
        <lane id=":gneJ5_1_0" index="0" speed="13.89" length="0.31" shape="39.21,34.66 39.22,34.97"/>
    </edge>
    <edge id=":gneJ50_0" function="internal">
        <lane id=":gneJ50_0_0" index="0" speed="3.65" length="4.67" shape="71.61,24.52 72.85,25.26 73.30,26.03 72.94,26.85 71.79,27.72"/>
    </edge>
    <edge id=":gneJ51_0" function="internal">
        <lane id=":gneJ51_0_0" index="0" speed="13.89" length="0.28" shape="64.68,16.69 64.40,16.69"/>
    </edge>
    <edge id=":gneJ51_1" function="internal">
        <lane id=":gneJ51_1_0" index="0" speed="13.89" length="0.14" shape="64.49,13.49 64.63,13.49"/>
    </edge>
    <edge id=":gneJ52_0" function="internal">
        <lane id=":gneJ52_0_0" index="0" speed="3.65" length="4.67" shape="78.47,13.28 79.68,14.06 80.09,14.86 79.70,15.66 78.51,16.48"/>
    </edge>
    <edge id=":gneJ54_0" function="internal">
        <lane id=":gneJ54_0_0" index="0" speed="13.89" length="0.10" shape="215.00,50.35 214.91,50.35"/>
    </edge>
    <edge id=":gneJ54_1" function="internal">
        <lane id=":gneJ54_1_0" index="0" speed="13.89" length="0.10" shape="215.03,47.15 214.94,47.15"/>
    </edge>
    <edge id=":gneJ55_0" function="internal">
        <lane id=":gneJ55_0_0" index="0" speed="3.65" length="4.67" shape="225.66,46.92 226.87,47.69 227.29,48.49 226.91,49.29 225.72,50.12"/>
    </edge>
    <edge id=":gneJ56_0" function="internal">
        <lane id=":gneJ56_0_0" index="0" speed="13.89" length="0.13" shape="214.61,32.97 214.48,32.97"/>
    </edge>
    <edge id=":gneJ56_1" function="internal">
        <lane id=":gneJ56_1_0" index="0" speed="13.89" length="0.27" shape="214.34,29.78 214.61,29.77"/>
    </edge>
    <edge id=":gneJ57_0" function="internal">
        <lane id=":gneJ57_0_0" index="0" speed="3.65" length="4.67" shape="224.69,29.76 225.89,30.56 226.29,31.36 225.89,32.16 224.69,32.96"/>
    </edge>
    <edge id=":gneJ58_0" function="internal">
        <lane id=":gneJ58_0_0" index="0" speed="13.89" length="0.10" shape="219.18,15.52 219.27,15.53"/>
    </edge>
    <edge id=":gneJ58_1" function="internal">
        <lane id=":gneJ58_1_0" index="0" speed="13.89" length="0.10" shape="219.35,12.33 219.44,12.34"/>
    </edge>
    <edge id=":gneJ59_0" function="internal">
        <lane id=":gneJ59_0_0" index="0" speed="3.65" length="4.67" shape="228.03,13.03 229.16,13.92 229.49,14.75 229.03,15.51 227.77,16.21"/>
    </edge>
    <edge id=":gneJ6_0" function="internal">
        <lane id=":gneJ6_0_0" index="0" speed="13.89" length="0.12" shape="35.74,26.38 35.74,26.26"/>
    </edge>
    <edge id=":gneJ6_1" function="internal">
        <lane id=":gneJ6_1_0" index="0" speed="13.89" length="0.35" shape="38.92,25.92 38.94,26.28"/>
    </edge>
    <edge id=":gneJ7_0" function="internal">
        <lane id=":gneJ7_0_0" index="0" speed="13.89" length="0.19" shape="34.37,13.39 34.35,13.20"/>
    </edge>
    <edge id=":gneJ7_1" function="internal">
        <lane id=":gneJ7_1_0" index="0" speed="13.89" length="0.30" shape="37.52,12.76 37.55,13.05"/>
    </edge>
    <edge id=":gneJ8_0" function="internal">
        <lane id=":gneJ8_0_0" index="0" speed="6.07" length="8.26" shape="33.45,6.75 33.46,4.46 34.22,2.78 35.72,1.73 37.97,1.29"/>
    </edge>
    <edge id=":gneJ8_1" function="internal">
        <lane id=":gneJ8_1_0" index="0" speed="3.90" length="2.75" shape="38.12,4.49 37.37,4.63 36.87,4.98 36.62,5.54 36.62,6.31"/>
    </edge>
    <edge id=":gneJ9_0" function="internal">
        <lane id=":gneJ9_0_0" index="0" speed="13.89" length="0.19" shape="46.07,4.11 46.01,4.11 45.98,4.10 45.94,4.10 45.88,4.11"/>
    </edge>
    <edge id=":gneJ9_1" function="internal">
        <lane id=":gneJ9_1_0" index="0" speed="13.89" length="0.56" shape="45.73,0.91 45.89,0.90 46.00,0.90 46.12,0.91 46.28,0.92"/>
    </edge>

    <edge id="A_Entrance_0" from="gneJ3" to="gneJ4" priority="-1">
        <lane id="A_Entrance_0_0" index="0" speed="13.89" length="10.54" shape="24.09,46.10 34.63,46.10"/>
    </edge>
    <edge id="A_Entrance_1" from="gneJ22" to="gneJ21" priority="-1">
        <lane id="A_Entrance_1_0" index="0" speed="13.89" length="15.26" shape="149.67,4.91 134.48,3.55"/>
    </edge>
    <edge id="B_Entrance_0" from="gneJ21" to="gneJ22" priority="-1">
        <lane id="B_Entrance_0_0" index="0" speed="13.89" length="15.26" shape="134.76,0.36 149.96,1.73"/>
    </edge>
    <edge id="P_A_1" from="gneJ45" to="gneJ46" priority="-1">
        <lane id="P_A_1_0" index="0" speed="13.89" length="7.51" shape="62.08,48.14 69.55,47.43"/>
    </edge>
    <edge id="P_A_2" from="gneJ47" to="gneJ48" priority="-1">
        <lane id="P_A_2_0" index="0" speed="13.89" length="8.31" shape="62.97,34.11 71.28,34.11"/>
    </edge>
    <edge id="P_A_3" from="gneJ49" to="gneJ50" priority="-1">
        <lane id="P_A_3_0" index="0" speed="13.89" length="7.73" shape="63.89,24.94 71.61,24.52"/>
    </edge>
    <edge id="P_A_4" from="gneJ51" to="gneJ52" priority="-1">
        <lane id="P_A_4_0" index="0" speed="13.89" length="13.84" shape="64.63,13.49 78.47,13.28"/>
    </edge>
    <edge id="P_B_1" from="gneJ58" to="gneJ59" priority="-1">
        <lane id="P_B_1_0" index="0" speed="13.89" length="8.62" shape="219.44,12.34 228.03,13.03"/>
    </edge>
    <edge id="P_B_2" from="gneJ56" to="gneJ57" priority="-1">
        <lane id="P_B_2_0" index="0" speed="13.89" length="10.08" shape="214.61,29.77 224.69,29.76"/>
    </edge>
    <edge id="P_B_3" from="gneJ54" to="gneJ55" priority="-1">
        <lane id="P_B_3_0" index="0" speed="13.89" length="10.72" shape="214.94,47.15 225.66,46.92"/>
    </edge>
    <edge id="gneE0" from="gneJ0" to="gneJ1" priority="-1">
        <lane id="gneE0_0" index="0" speed="13.89" length="34.56" shape="8.08,6.16 8.00,40.72"/>
    </edge>
    <edge id="gneE1" from="gneJ2" to="gneJ1" priority="-1">
        <lane id="gneE1_0" index="0" speed="13.89" length="36.85" shape="6.17,92.11 5.01,55.28"/>
    </edge>
    <edge id="gneE10" from="gneJ7" to="gneJ8" priority="-1">
        <lane id="gneE10_0" index="0" speed="13.89" length="6.51" shape="34.35,13.20 33.45,6.75"/>
    </edge>
    <edge id="gneE100" from="gneJ36" to="gneJ51" priority="-1">
        <lane id="gneE100_0" index="0" speed="13.89" length="3.78" shape="60.71,13.38 64.49,13.49"/>
    </edge>
    <edge id="gneE102" from="gneJ52" to="gneJ51" priority="-1">
        <lane id="gneE102_0" index="0" speed="13.89" length="13.84" shape="78.51,16.48 64.68,16.69"/>
    </edge>
    <edge id="gneE103" from="gneJ51" to="gneJ36" priority="-1">
        <lane id="gneE103_0" index="0" speed="13.89" length="3.78" shape="64.40,16.69 60.62,16.58"/>
    </edge>
    <edge id="gneE104" from="gneJ29" to="gneJ54" priority="-1">
        <lane id="gneE104_0" index="0" speed="13.89" length="9.06" shape="205.98,46.80 215.03,47.15"/>
    </edge>
    <edge id="gneE106" from="gneJ55" to="gneJ54" priority="-1">
        <lane id="gneE106_0" index="0" speed="13.89" length="10.72" shape="225.72,50.12 215.00,50.35"/>
    </edge>
    <edge id="gneE107" from="gneJ54" to="gneJ29" priority="-1">
        <lane id="gneE107_0" index="0" speed="13.89" length="9.06" shape="214.91,50.35 205.86,49.99"/>
    </edge>
    <edge id="gneE108" from="gneJ28" to="gneJ56" priority="-1">
        <lane id="gneE108_0" index="0" speed="13.89" length="1.22" shape="213.12,29.83 214.34,29.78"/>
    </edge>
    <edge id="gneE11" from="gneJ8" to="gneJ9" priority="-1">
        <lane id="gneE11_0" index="0" speed="13.89" length="7.77" shape="37.97,1.29 45.73,0.91"/>
    </edge>
    <edge id="gneE110" from="gneJ57" to="gneJ56" priority="-1">
        <lane id="gneE110_0" index="0" speed="13.89" length="10.08" shape="224.69,32.96 214.61,32.97"/>
    </edge>
    <edge id="gneE111" from="gneJ56" to="gneJ28" priority="-1">
        <lane id="gneE111_0" index="0" speed="13.89" length="1.22" shape="214.48,32.97 213.26,33.03"/>
    </edge>
    <edge id="gneE112" from="gneJ27" to="gneJ58" priority="-1">
        <lane id="gneE112_0" index="0" speed="13.89" length="3.80" shape="215.55,12.24 219.35,12.33"/>
    </edge>
    <edge id="gneE114" from="gneJ59" to="gneJ58" priority="-1">
        <lane id="gneE114_0" index="0" speed="13.89" length="8.62" shape="227.77,16.21 219.18,15.52"/>
    </edge>
    <edge id="gneE115" from="gneJ58" to="gneJ27" priority="-1">
        <lane id="gneE115_0" index="0" speed="13.89" length="3.80" shape="219.27,15.53 215.47,15.44"/>
    </edge>
    <edge id="gneE12" from="gneJ9" to="gneJ10" priority="-1">
        <lane id="gneE12_0" index="0" speed="13.89" length="0.91" shape="46.28,0.92 47.19,0.98"/>
    </edge>
    <edge id="gneE13" from="gneJ10" to="gneJ11" priority="-1">
        <lane id="gneE13_0" index="0" speed="13.89" length="2.74" shape="60.73,0.72 63.45,0.41"/>
    </edge>
    <edge id="gneE14" from="gneJ11" to="gneJ12" priority="-1">
        <lane id="gneE14_0" index="0" speed="13.89" length="8.99" shape="64.94,0.47 73.75,2.24"/>
    </edge>
    <edge id="gneE15" from="gneJ12" to="gneJ13" priority="-1">
        <lane id="gneE15_0" index="0" speed="13.89" length="11.72" shape="74.21,2.26 85.88,1.20"/>
    </edge>
    <edge id="gneE16" from="gneJ13" to="gneJ14" priority="-1">
        <lane id="gneE16_0" index="0" speed="13.89" length="10.88" shape="86.32,1.18 97.19,1.18"/>
    </edge>
    <edge id="gneE17" from="gneJ14" to="gneJ15" priority="-1">
        <lane id="gneE17_0" index="0" speed="13.89" length="8.68" shape="97.40,1.18 106.07,0.90"/>
    </edge>
    <edge id="gneE18" from="gneJ15" to="gneJ16" priority="-1">
        <lane id="gneE18_0" index="0" speed="13.89" length="8.68" shape="106.38,0.90 115.05,0.90"/>
    </edge>
    <edge id="gneE23" from="gneJ16" to="gneJ21" priority="-1">
        <lane id="gneE23_0" index="0" speed="13.89" length="18.94" shape="115.26,0.90 134.19,0.35"/>
    </edge>
    <edge id="gneE25" from="gneJ22" to="gneJ23" priority="-1">
        <lane id="gneE25_0" index="0" speed="13.89" length="14.43" shape="150.19,1.73 164.60,0.91"/>
    </edge>
    <edge id="gneE26" from="gneJ23" to="gneJ24" priority="-1">
        <lane id="gneE26_0" index="0" speed="13.89" length="16.74" shape="164.88,0.89 181.59,-0.21"/>
    </edge>
    <edge id="gneE27" from="gneJ24" to="gneJ25" priority="-1">
        <lane id="gneE27_0" index="0" speed="13.89" length="14.62" shape="182.09,-0.21 196.70,0.34"/>
    </edge>
    <edge id="gneE28" from="gneJ25" to="gneJ26" priority="-1">
        <lane id="gneE28_0" index="0" speed="13.89" length="8.97" shape="196.60,0.34 205.57,0.14"/>
    </edge>
    <edge id="gneE29" from="gneJ26" to="gneJ27" priority="-1">
        <lane id="gneE29_0" index="0" speed="13.89" length="1.03" shape="210.46,5.39 210.36,6.41"/>
    </edge>
    <edge id="gneE3" from="gneJ1" to="gneJ0" priority="-1">
        <lane id="gneE3_0" index="0" speed="13.89" length="34.56" shape="4.80,40.72 4.88,6.15"/>
    </edge>
    <edge id="gneE30" from="gneJ27" to="gneJ28" priority="-1">
        <lane id="gneE30_0" index="0" speed="13.89" length="3.62" shape="208.63,20.64 208.07,24.22"/>
    </edge>
    <edge id="gneE31" from="gneJ28" to="gneJ29" priority="-1">
        <lane id="gneE31_0" index="0" speed="13.89" length="6.50" shape="205.66,38.51 204.47,44.90"/>
    </edge>
    <edge id="gneE32" from="gneJ29" to="gneJ28" priority="-1">
        <lane id="gneE32_0" index="0" speed="13.89" length="6.50" shape="201.33,44.32 202.52,37.92"/>
    </edge>
    <edge id="gneE33" from="gneJ28" to="gneJ27" priority="-1">
        <lane id="gneE33_0" index="0" speed="13.89" length="3.62" shape="204.91,23.73 205.46,20.15"/>
    </edge>
    <edge id="gneE34" from="gneJ27" to="gneJ26" priority="-1">
        <lane id="gneE34_0" index="0" speed="13.89" length="1.03" shape="207.18,6.11 207.27,5.09"/>
    </edge>
    <edge id="gneE4" from="gneJ1" to="gneJ3" priority="-1">