<?xml version="1.0" encoding="UTF-8"?>

<!-- generated on 03/02/20 11:10:44 by Eclipse SUMO netedit Version 1.3.1
<configuration xmlns:xsi="http://www.w3.org/2001/XMLSchema-instance" xsi:noNamespaceSchemaLocation="http://sumo.dlr.de/xsd/netconvertConfiguration.xsd">

    <input>
        <sumo-net-file value="Z:\Work\Sumo\sumo_apis\simple_parking\networks\mall\mall.net.xml"/>
    </input>

    <output>
        <output-file value="Z:\Work\Sumo\sumo_apis\simple_parking\networks\mall\mall.net.xml"/>
    </output>

    <processing>
        <geometry.max-grade.fix value="false"/>
        <offset.disable-normalization value="true"/>
        <opposites.guess.fix-lengths value="true"/>
        <lefthand value="false"/>
    </processing>

    <junctions>
        <no-turnarounds value="true"/>
        <junctions.corner-detail value="5"/>
        <junctions.limit-turn-speed value="5.5"/>
        <rectangular-lane-cut value="false"/>
    </junctions>

    <pedestrian>
        <walkingareas value="false"/>
    </pedestrian>

</configuration>
-->

<net version="1.3" junctionCornerDetail="5" limitTurnSpeed="5.50" xmlns:xsi="http://www.w3.org/2001/XMLSchema-instance" xsi:noNamespaceSchemaLocation="http://sumo.dlr.de/xsd/net_file.xsd">

    <location netOffset="0.00,0.00" convBoundary="6.10,-36.56,209.20,92.06" origBoundary="-10000000000.00,-10000000000.00,10000000000.00,10000000000.00" projParameter="!"/>

    <edge id=":gneJ0_0" function="internal">
        <lane id=":gneJ0_0_0" index="0" speed="13.89" length="0.31" shape="8.08,5.85 8.08,6.16"/>
    </edge>
    <edge id=":gneJ0_1" function="internal">
        <lane id=":gneJ0_1_0" index="0" speed="13.89" length="0.28" shape="4.88,6.15 4.88,5.88"/>
    </edge>
    <edge id=":gneJ1_0" function="internal">
        <lane id=":gneJ1_0_0" index="0" speed="13.89" length="14.56" shape="5.01,55.28 4.80,40.72"/>
    </edge>
    <edge id=":gneJ1_1" function="internal">
        <lane id=":gneJ1_1_0" index="0" speed="7.98" length="6.12" shape="5.01,55.28 5.44,51.39 6.52,49.47"/>
    </edge>
    <edge id=":gneJ1_6" function="internal">
        <lane id=":gneJ1_6_0" index="0" speed="7.98" length="8.14" shape="6.52,49.47 7.02,48.59 9.74,46.88 13.61,46.26"/>
    </edge>
    <edge id=":gneJ1_2" function="internal">
        <lane id=":gneJ1_2_0" index="0" speed="6.48" length="9.04" shape="13.66,49.46 11.21,49.85 9.48,50.94 8.48,52.71 8.21,55.18"/>
    </edge>
    <edge id=":gneJ1_3" function="internal">
        <lane id=":gneJ1_3_0" index="0" speed="7.97" length="14.26" shape="13.66,49.46 9.78,48.97 7.00,47.35 5.34,44.60 4.80,40.72"/>
    </edge>
    <edge id=":gneJ1_4" function="internal">
        <lane id=":gneJ1_4_0" index="0" speed="6.47" length="9.03" shape="8.00,40.72 8.34,43.18 9.39,44.92 11.15,45.95 13.61,46.26"/>
    </edge>
    <edge id=":gneJ1_5" function="internal">
        <lane id=":gneJ1_5_0" index="0" speed="13.89" length="14.45" shape="8.00,40.72 8.21,55.18"/>
    </edge>
    <edge id=":gneJ10_0" function="internal">
        <lane id=":gneJ10_0_0" index="0" speed="6.58" length="9.14" shape="86.84,3.61 84.39,3.98 82.64,5.06 81.58,6.85 81.20,9.34"/>
    </edge>
    <edge id=":gneJ10_1" function="internal">
        <lane id=":gneJ10_1_0" index="0" speed="13.89" length="14.41" shape="86.84,3.61 72.43,3.75"/>
    </edge>
    <edge id=":gneJ10_2" function="internal">
        <lane id=":gneJ10_2_0" index="0" speed="13.89" length="14.44" shape="72.38,0.55 86.82,0.41"/>
    </edge>
    <edge id=":gneJ10_3" function="internal">
        <lane id=":gneJ10_3_0" index="0" speed="7.96" length="5.97" shape="72.38,0.55 76.28,1.05 78.04,2.09"/>
    </edge>
    <edge id=":gneJ10_6" function="internal">
        <lane id=":gneJ10_6_0" index="0" speed="7.96" length="8.31" shape="78.04,2.09 79.05,2.69 80.69,5.45 81.20,9.34"/>
    </edge>
    <edge id=":gneJ10_4" function="internal">
        <lane id=":gneJ10_4_0" index="0" speed="6.46" length="9.03" shape="78.00,9.31 77.68,6.85 76.64,5.10 74.89,4.07 72.43,3.75"/>
    </edge>
    <edge id=":gneJ10_5" function="internal">
        <lane id=":gneJ10_5_0" index="0" speed="8.06" length="14.23" shape="78.00,9.31 78.59,5.43 80.25,2.66 83.00,0.98 86.82,0.41"/>
    </edge>
    <edge id=":gneJ24_0" function="internal">
        <lane id=":gneJ24_0_0" index="0" speed="13.89" length="0.13" shape="181.90,2.98 181.77,2.98"/>
    </edge>
    <edge id=":gneJ24_1" function="internal">
        <lane id=":gneJ24_1_0" index="0" speed="13.89" length="0.27" shape="181.75,-0.22 182.02,-0.22"/>
    </edge>
    <edge id=":gneJ25_0" function="internal">
        <lane id=":gneJ25_0_0" index="0" speed="13.89" length="0.10" shape="196.68,3.54 196.58,3.54"/>
    </edge>
    <edge id=":gneJ25_1" function="internal">
        <lane id=":gneJ25_1_0" index="0" speed="13.89" length="0.10" shape="196.70,0.34 196.60,0.34"/>
    </edge>
    <edge id=":gneJ26_0" function="internal">
        <lane id=":gneJ26_0_0" index="0" speed="6.07" length="7.98" shape="205.83,0.13 208.01,0.40 209.56,1.30 210.46,2.84 210.74,5.03"/>
    </edge>
    <edge id=":gneJ26_1" function="internal">
        <lane id=":gneJ26_1_0" index="0" speed="3.90" length="2.66" shape="207.54,4.96 207.45,4.24 207.14,3.72 206.63,3.42 205.90,3.33"/>
    </edge>
    <edge id=":gneJ29_0" function="internal">
        <lane id=":gneJ29_0_0" index="0" speed="3.65" length="4.67" shape="209.90,48.28 209.08,49.47 208.27,49.85 207.48,49.43 206.70,48.22"/>
    </edge>
    <edge id=":gneJ3_0" function="internal">
        <lane id=":gneJ3_0_0" index="0" speed="13.89" length="0.26" shape="24.09,49.30 23.83,49.30"/>
    </edge>
    <edge id=":gneJ3_1" function="internal">
        <lane id=":gneJ3_1_0" index="0" speed="13.89" length="0.31" shape="23.78,46.10 24.09,46.10"/>
    </edge>
    <edge id=":gneJ39_0" function="internal">
        <lane id=":gneJ39_0_0" index="0" speed="3.65" length="4.67" shape="80.77,51.17 79.96,52.36 79.15,52.75 78.36,52.34 77.57,51.13"/>
    </edge>
    <edge id=":gneJ4_0" function="internal">
        <lane id=":gneJ4_0_0" index="0" speed="6.07" length="7.86" shape="39.43,44.40 39.17,46.54 38.28,48.07 36.77,48.99 34.63,49.30"/>
    </edge>
    <edge id=":gneJ4_1" function="internal">
        <lane id=":gneJ4_1_0" index="0" speed="3.90" length="2.62" shape="34.63,46.10 35.34,46.00 35.85,45.69 36.14,45.18 36.23,44.47"/>
    </edge>
    <edge id=":gneJ5_0" function="internal">
        <lane id=":gneJ5_0_0" index="0" speed="13.89" length="0.28" shape="36.02,35.04 36.02,34.76"/>
    </edge>
    <edge id=":gneJ5_1" function="internal">
        <lane id=":gneJ5_1_0" index="0" speed="13.89" length="0.31" shape="39.21,34.66 39.22,34.97"/>
    </edge>
    <edge id=":gneJ6_0" function="internal">
        <lane id=":gneJ6_0_0" index="0" speed="13.89" length="0.12" shape="35.74,26.38 35.74,26.26"/>
    </edge>
    <edge id=":gneJ6_1" function="internal">
        <lane id=":gneJ6_1_0" index="0" speed="13.89" length="0.35" shape="38.92,25.92 38.94,26.28"/>
    </edge>
    <edge id=":gneJ61_0" function="internal">
        <lane id=":gneJ61_0_0" index="0" speed="13.89" length="0.30" shape="101.13,3.52 100.83,3.52"/>
    </edge>
    <edge id=":gneJ61_1" function="internal">
        <lane id=":gneJ61_1_0" index="0" speed="13.89" length="0.30" shape="100.81,0.32 101.11,0.32"/>
    </edge>
    <edge id=":gneJ7_0" function="internal">
        <lane id=":gneJ7_0_0" index="0" speed="13.89" length="0.19" shape="34.37,13.39 34.35,13.20"/>
    </edge>
    <edge id=":gneJ7_1" function="internal">
        <lane id=":gneJ7_1_0" index="0" speed="13.89" length="0.30" shape="37.52,12.76 37.55,13.05"/>
    </edge>
    <edge id=":gneJ8_0" function="internal">
        <lane id=":gneJ8_0_0" index="0" speed="6.07" length="8.26" shape="33.45,6.75 33.46,4.46 34.22,2.78 35.72,1.73 37.97,1.29"/>
    </edge>
    <edge id=":gneJ8_1" function="internal">
        <lane id=":gneJ8_1_0" index="0" speed="3.90" length="2.75" shape="38.12,4.49 37.37,4.63 36.87,4.98 36.62,5.54 36.62,6.31"/>
    </edge>
    <edge id=":gneJ9_0" function="internal">
        <lane id=":gneJ9_0_0" index="0" speed="13.89" length="0.18" shape="46.13,4.10 45.95,4.10"/>
    </edge>
    <edge id=":gneJ9_1" function="internal">
        <lane id=":gneJ9_1_0" index="0" speed="13.89" length="0.29" shape="45.79,0.91 46.09,0.90"/>
    </edge>

    <edge id="A_Entrance_0" from="gneJ3" to="gneJ4" priority="-1">
        <lane id="A_Entrance_0_0" index="0" speed="13.89" length="10.54" shape="24.09,46.10 34.63,46.10"/>
    </edge>
    <edge id="gneE0" from="gneJ0" to="gneJ1" priority="-1">
        <lane id="gneE0_0" index="0" speed="13.89" length="34.56" shape="8.08,6.16 8.00,40.72"/>
    </edge>
    <edge id="gneE1" from="gneJ2" to="gneJ1" priority="-1">
        <lane id="gneE1_0" index="0" speed="13.89" length="36.85" shape="6.17,92.11 5.01,55.28"/>
    </edge>
    <edge id="gneE10" from="gneJ7" to="gneJ8" priority="-1">
        <lane id="gneE10_0" index="0" speed="13.89" length="6.51" shape="34.35,13.20 33.45,6.75"/>
    </edge>
    <edge id="gneE11" from="gneJ8" to="gneJ9" priority="-1">
        <lane id="gneE11_0" index="0" speed="13.89" length="7.83" shape="37.97,1.29 45.79,0.91"/>
    </edge>
    <edge id="gneE12" from="gneJ9" to="gneJ10" priority="-1">
        <lane id="gneE12_0" index="0" speed="13.89" length="26.30" shape="46.09,0.90 72.38,0.55"/>
    </edge>
    <edge id="gneE120" from="gneJ10" to="gneJ61" priority="-1">
        <lane id="gneE120_0" index="0" speed="13.89" length="13.99" shape="86.82,0.41 100.81,0.32"/>
    </edge>
    <edge id="gneE121" from="gneJ61" to="gneJ10" priority="-1">
        <lane id="gneE121_0" index="0" speed="13.89" length="13.99" shape="100.83,3.52 86.84,3.61"/>
    </edge>
    <edge id="gneE122" from="gneJ61" to="gneJ24" priority="-1">
        <lane id="gneE122_0" index="0" speed="13.89" length="80.64" shape="101.11,0.32 181.75,-0.22"/>
    </edge>
    <edge id="gneE123" from="gneJ24" to="gneJ61" priority="-1">
        <lane id="gneE123_0" index="0" speed="13.89" length="80.64" shape="181.77,2.98 101.13,3.52"/>
    </edge>
    <edge id="gneE27" from="gneJ24" to="gneJ25" priority="-1">
        <lane id="gneE27_0" index="0" speed="13.89" length="14.69" shape="182.02,-0.22 196.70,0.34"/>
    </edge>
    <edge id="gneE28" from="gneJ25" to="gneJ26" priority="-1">
        <lane id="gneE28_0" index="0" speed="13.89" length="9.23" shape="196.60,0.34 205.83,0.13"/>
    </edge>
    <edge id="gneE3" from="gneJ1" to="gneJ0" priority="-1">
        <lane id="gneE3_0" index="0" speed="13.89" length="34.56" shape="4.80,40.72 4.88,6.15"/>
    </edge>
    <edge id="gneE4" from="gneJ1" to="gneJ3" priority="-1">
        <lane id="gneE4_0" index="0" speed="13.89" length="10.17" shape="13.61,46.26 23.78,46.10"/>
    </edge>
    <edge id="gneE67" from="gneJ26" to="gneJ25" priority="-1">
        <lane id="gneE67_0" index="0" speed="13.89" length="9.23" shape="205.90,3.33 196.68,3.54"/>
    </edge>
    <edge id="gneE68" from="gneJ25" to="gneJ24" priority="-1">
        <lane id="gneE68_0" index="0" speed="13.89" length="14.69" shape="196.58,3.54 181.90,2.98"/>
    </edge>
    <edge id="gneE7" from="gneJ4" to="gneJ5" priority="-1">
        <lane id="gneE7_0" index="0" speed="13.89" length="9.43" shape="36.23,44.47 36.02,35.04"/>
    </edge>
    <edge id="gneE79" from="gneJ10" to="gneJ9" priority="-1">
        <lane id="gneE79_0" index="0" speed="13.89" length="26.30" shape="72.43,3.75 46.13,4.10"/>
    </edge>
    <edge id="gneE8" from="gneJ5" to="gneJ6" priority="-1">
        <lane id="gneE8_0" index="0" speed="13.89" length="8.39" shape="36.02,34.76 35.74,26.38"/>
    </edge>
    <edge id="gneE80" from="gneJ9" to="gneJ8" priority="-1">
        <lane id="gneE80_0" index="0" speed="13.89" length="7.83" shape="45.95,4.10 38.12,4.49"/>
    </edge>
    <edge id="gneE81" from="gneJ8" to="gneJ7" priority="-1">
        <lane id="gneE81_0" index="0" speed="13.89" length="6.51" shape="36.62,6.31 37.52,12.76"/>
    </edge>
    <edge id="gneE82" from="gneJ7" to="gneJ6" priority="-1">
        <lane id="gneE82_0" index="0" speed="13.89" length="12.94" shape="37.55,13.05 38.92,25.92"/>
    </edge>
    <edge id="gneE83" from="gneJ6" to="gneJ5" priority="-1">
        <lane id="gneE83_0" index="0" speed="13.89" length="8.39" shape="38.94,26.28 39.21,34.66"/>
    </edge>
    <edge id="gneE84" from="gneJ5" to="gneJ4" priority="-1">
        <lane id="gneE84_0" index="0" speed="13.89" length="9.43" shape="39.22,34.97 39.43,44.40"/>
    </edge>
    <edge id="gneE85" from="gneJ4" to="gneJ3" priority="-1">
        <lane id="gneE85_0" index="0" speed="13.89" length="10.54" shape="34.63,49.30 24.09,49.30"/>
    </edge>
    <edge id="gneE87" from="gneJ0" to="gneJ44" priority="-1">
        <lane id="gneE87_0" index="0" speed="13.89" length="42.42" shape="4.88,5.88 4.50,-36.55"/>
    </edge>
    <edge id="gneE9" from="gneJ6" to="gneJ7" priority="-1">
        <lane id="gneE9_0" index="0" speed="13.89" length="12.94" shape="35.74,26.26 34.37,13.39"/>
    </edge>
    <edge id="networkEntrance" from="gneJ44" to="gneJ0" priority="-1">
        <lane id="networkEntrance_0" index="0" speed="13.89" length="42.42" shape="7.70,-36.57 8.08,5.85"/>
    </edge>
    <edge id="networkExit" from="gneJ1" to="gneJ2" priority="-1">
        <lane id="networkExit_0" index="0" speed="13.89" length="36.85" shape="8.21,55.18 9.37,92.01"/>
    </edge>
    <edge id="pa0" from="gneJ10" to="gneJ39" priority="-1" shape="79.68,2.05 79.40,28.85 79.17,51.15">
        <lane id="pa0_0" index="0" speed="13.89" length="41.83" shape="81.20,9.34 81.00,28.87 80.77,51.17"/>
    </edge>
    <edge id="pa1" from="gneJ39" to="gneJ10" priority="-1">
        <lane id="pa1_0" index="0" speed="13.89" length="41.83" shape="77.57,51.13 78.00,9.31"/>
    </edge>
    <edge id="parkingExit" from="gneJ3" to="gneJ1" priority="-1">
        <lane id="parkingExit_0" index="0" speed="13.89" length="10.17" shape="23.83,49.30 13.66,49.46"/>
    </edge>
    <edge id="pb0" from="gneJ26" to="gneJ29" priority="-1">
        <lane id="pb0_0" index="0" speed="13.89" length="43.26" shape="210.74,5.03 209.90,48.28"/>
    </edge>
    <edge id="pb1" from="gneJ29" to="gneJ26" priority="-1">
        <lane id="pb1_0" index="0" speed="13.89" length="43.26" shape="206.70,48.22 207.54,4.96"/>
    </edge>

    <junction id="gneJ0" type="priority" x="6.48" y="6.01" incLanes="networkEntrance_0 gneE3_0" intLanes=":gneJ0_0_0 :gneJ0_1_0" shape="9.68,5.83 3.28,5.89 3.28,6.15 9.68,6.16">
        <request index="0" response="00" foes="00" cont="0"/>
        <request index="1" response="00" foes="00" cont="0"/>
    </junction>
    <junction id="gneJ1" type="priority" x="6.38" y="47.98" incLanes="gneE1_0 parkingExit_0 gneE0_0" intLanes=":gneJ1_0_0 :gneJ1_6_0 :gneJ1_2_0 :gneJ1_3_0 :gneJ1_4_0 :gneJ1_5_0" shape="3.41,55.33 9.81,55.13 10.18,52.90 10.71,52.11 11.48,51.54 12.47,51.19 13.69,51.06 13.59,44.66 11.37,44.26 10.59,43.71 10.04,42.94 9.71,41.95 9.60,40.73 3.20,40.71">
        <request index="0" response="000000" foes="001000" cont="0"/>
        <request index="1" response="110000" foes="111000" cont="1"/>
        <request index="2" response="100000" foes="100000" cont="0"/>
        <request index="3" response="100011" foes="100011" cont="0"/>
        <request index="4" response="000000" foes="000010" cont="0"/>
        <request index="5" response="000000" foes="001110" cont="0"/>
    </junction>
    <junction id="gneJ10" type="priority" x="79.68" y="2.05" incLanes="gneE121_0 gneE12_0 pa1_0" intLanes=":gneJ10_0_0 :gneJ10_1_0 :gneJ10_2_0 :gneJ10_6_0 :gneJ10_4_0 :gneJ10_5_0" shape="86.85,5.21 86.81,-1.19 72.36,-1.05 72.45,5.35 74.66,5.76 75.44,6.31 75.98,7.08 76.31,8.07 76.40,9.29 82.80,9.36 83.27,7.06 83.84,6.26 84.62,5.68 85.62,5.33">
        <request index="0" response="000000" foes="001000" cont="0"/>
        <request index="1" response="000000" foes="111000" cont="0"/>
        <request index="2" response="000000" foes="100000" cont="0"/>
        <request index="3" response="000011" foes="100011" cont="1"/>
        <request index="4" response="000010" foes="000010" cont="0"/>
        <request index="5" response="001110" foes="001110" cont="0"/>
    </junction>
    <junction id="gneJ2" type="dead_end" x="7.77" y="92.06" incLanes="networkExit_0" intLanes="" shape="7.77,92.06 10.97,91.96 7.77,92.06"/>
    <junction id="gneJ24" type="priority" x="181.86" y="1.38" incLanes="gneE68_0 gneE122_0" intLanes=":gneJ24_0_0 :gneJ24_1_0" shape="181.84,4.58 182.08,-1.81 181.74,-1.82 181.78,4.58">
        <request index="0" response="00" foes="00" cont="0"/>
        <request index="1" response="00" foes="00" cont="0"/>
    </junction>
    <junction id="gneJ25" type="priority" x="196.64" y="1.94" incLanes="gneE67_0 gneE27_0" intLanes=":gneJ25_0_0 :gneJ25_1_0" shape="196.81,5.14 196.66,-1.26 196.42,5.13">
        <request index="0" response="00" foes="00" cont="0"/>
        <request index="1" response="00" foes="00" cont="0"/>
    </junction>
    <junction id="gneJ26" type="priority" x="209.20" y="1.66" incLanes="gneE28_0 pb1_0" intLanes=":gneJ26_0_0 :gneJ26_1_0" shape="205.79,-1.46 205.94,4.93 212.33,5.06 212.19,3.02 211.67,1.37 210.76,0.09 209.48,-0.81 207.83,-1.32">
        <request index="0" response="00" foes="00" cont="0"/>
        <request index="1" response="00" foes="00" cont="0"/>
    </junction>
    <junction id="gneJ29" type="priority" x="208.30" y="48.25" incLanes="pb0_0" intLanes=":gneJ29_0_0" shape="208.30,48.25 211.50,48.31 208.30,48.25">
        <request index="0" response="0" foes="0" cont="0"/>
    </junction>
    <junction id="gneJ3" type="priority" x="23.95" y="47.70" incLanes="gneE85_0 gneE4_0" intLanes=":gneJ3_0_0 :gneJ3_1_0" shape="24.09,50.90 24.09,44.50 23.76,44.50 23.86,50.90">
        <request index="0" response="00" foes="00" cont="0"/>
        <request index="1" response="00" foes="00" cont="0"/>
    </junction>
    <junction id="gneJ39" type="priority" x="79.17" y="51.15" incLanes="pa0_0" intLanes=":gneJ39_0_0" shape="79.17,51.15 82.37,51.18 79.17,51.15">
        <request index="0" response="0" foes="0" cont="0"/>
    </junction>
    <junction id="gneJ4" type="priority" x="37.90" y="47.70" incLanes="gneE84_0 A_Entrance_0_0" intLanes=":gneJ4_0_0 :gneJ4_1_0" shape="41.03,44.36 34.63,44.50 34.63,50.90 36.62,50.72 38.25,50.17 39.50,49.27 40.38,47.99 40.89,46.36">
        <request index="0" response="00" foes="00" cont="0"/>
        <request index="1" response="00" foes="00" cont="0"/>
    </junction>
    <junction id="gneJ44" type="dead_end" x="6.10" y="-36.56" incLanes="gneE87_0" intLanes="" shape="6.10,-36.56 2.90,-36.53 6.10,-36.56"/>
    <junction id="gneJ5" type="priority" x="37.62" y="34.86" incLanes="gneE7_0 gneE83_0" intLanes=":gneJ5_0_0 :gneJ5_1_0" shape="34.42,35.08 40.82,34.94 40.81,34.61 34.42,34.82">
        <request index="0" response="00" foes="00" cont="0"/>
        <request index="1" response="00" foes="00" cont="0"/>
    </junction>
    <junction id="gneJ6" type="priority" x="37.34" y="26.21" incLanes="gneE8_0 gneE82_0" intLanes=":gneJ6_0_0 :gneJ6_1_0" shape="34.15,26.43 40.54,26.22 40.51,25.76">
        <request index="0" response="00" foes="00" cont="0"/>
        <request index="1" response="00" foes="00" cont="0"/>
    </junction>
    <junction id="gneJ61" type="priority" x="100.97" y="1.92" incLanes="gneE123_0 gneE120_0" intLanes=":gneJ61_0_0 :gneJ61_1_0" shape="101.14,5.12 101.10,-1.28 100.80,-1.28 100.84,5.12">
        <request index="0" response="00" foes="00" cont="0"/>
        <request index="1" response="00" foes="00" cont="0"/>
    </junction>
    <junction id="gneJ7" type="priority" x="35.95" y="13.10" incLanes="gneE9_0 gneE81_0" intLanes=":gneJ7_0_0 :gneJ7_1_0" shape="32.78,13.56 39.15,12.88 39.10,12.54 32.76,13.42">
        <request index="0" response="00" foes="00" cont="0"/>
        <request index="1" response="00" foes="00" cont="0"/>
    </junction>
    <junction id="gneJ8" type="priority" x="34.55" y="3.06" incLanes="gneE10_0 gneE80_0" intLanes=":gneJ8_0_0 :gneJ8_1_0" shape="31.86,6.97 38.20,6.09 37.89,-0.31 35.78,-0.01 34.11,0.65 32.89,1.68 32.10,3.08 31.76,4.84">
        <request index="0" response="00" foes="00" cont="0"/>
        <request index="1" response="00" foes="00" cont="0"/>
    </junction>
    <junction id="gneJ9" type="priority" x="45.99" y="2.50" incLanes="gneE79_0 gneE11_0" intLanes=":gneJ9_0_0 :gneJ9_1_0" shape="46.15,5.70 46.07,-0.70 45.72,-0.69 46.03,5.70">
        <request index="0" response="00" foes="00" cont="0"/>
        <request index="1" response="00" foes="00" cont="0"/>
    </junction>

    <junction id=":gneJ1_6_0" type="internal" x="6.52" y="49.47" incLanes=":gneJ1_1_0 gneE0_0" intLanes=":gneJ1_3_0 :gneJ1_4_0 :gneJ1_5_0"/>
    <junction id=":gneJ10_6_0" type="internal" x="78.04" y="2.09" incLanes=":gneJ10_3_0 gneE121_0" intLanes=":gneJ10_0_0 :gneJ10_1_0 :gneJ10_5_0"/>

    <connection from="A_Entrance_0" to="gneE7" fromLane="0" toLane="0" via=":gneJ4_1_0" dir="r" state="M"/>
    <connection from="gneE0" to="gneE4" fromLane="0" toLane="0" via=":gneJ1_4_0" dir="r" state="M"/>
    <connection from="gneE0" to="networkExit" fromLane="0" toLane="0" via=":gneJ1_5_0" dir="s" state="M"/>
    <connection from="gneE1" to="gneE3" fromLane="0" toLane="0" via=":gneJ1_0_0" dir="s" state="M"/>
    <connection from="gneE1" to="gneE4" fromLane="0" toLane="0" via=":gneJ1_1_0" dir="l" state="m"/>
    <connection from="gneE10" to="gneE11" fromLane="0" toLane="0" via=":gneJ8_0_0" dir="l" state="M"/>
    <connection from="gneE11" to="gneE12" fromLane="0" toLane="0" via=":gneJ9_1_0" dir="s" state="M"/>
    <connection from="gneE12" to="gneE120" fromLane="0" toLane="0" via=":gneJ10_2_0" dir="s" state="M"/>
    <connection from="gneE12" to="pa0" fromLane="0" toLane="0" via=":gneJ10_3_0" dir="l" state="m"/>
    <connection from="gneE120" to="gneE122" fromLane="0" toLane="0" via=":gneJ61_1_0" dir="s" state="M"/>
    <connection from="gneE121" to="pa0" fromLane="0" toLane="0" via=":gneJ10_0_0" dir="r" state="M"/>
    <connection from="gneE121" to="gneE79" fromLane="0" toLane="0" via=":gneJ10_1_0" dir="s" state="M"/>
    <connection from="gneE122" to="gneE27" fromLane="0" toLane="0" via=":gneJ24_1_0" dir="s" state="M"/>
    <connection from="gneE123" to="gneE121" fromLane="0" toLane="0" via=":gneJ61_0_0" dir="s" state="M"/>
    <connection from="gneE27" to="gneE28" fromLane="0" toLane="0" via=":gneJ25_1_0" dir="s" state="M"/>
    <connection from="gneE28" to="pb0" fromLane="0" toLane="0" via=":gneJ26_0_0" dir="l" state="M"/>
    <connection from="gneE3" to="gneE87" fromLane="0" toLane="0" via=":gneJ0_1_0" dir="s" state="M"/>
    <connection from="gneE4" to="A_Entrance_0" fromLane="0" toLane="0" via=":gneJ3_1_0" dir="s" state="M"/>
    <connection from="gneE67" to="gneE68" fromLane="0" toLane="0" via=":gneJ25_0_0" dir="s" state="M"/>
    <connection from="gneE68" to="gneE123" fromLane="0" toLane="0" via=":gneJ24_0_0" dir="s" state="M"/>
    <connection from="gneE7" to="gneE8" fromLane="0" toLane="0" via=":gneJ5_0_0" dir="s" state="M"/>
    <connection from="gneE79" to="gneE80" fromLane="0" toLane="0" via=":gneJ9_0_0" dir="s" state="M"/>
    <connection from="gneE8" to="gneE9" fromLane="0" toLane="0" via=":gneJ6_0_0" dir="s" state="M"/>
    <connection from="gneE80" to="gneE81" fromLane="0" toLane="0" via=":gneJ8_1_0" dir="r" state="M"/>
    <connection from="gneE81" to="gneE82" fromLane="0" toLane="0" via=":gneJ7_1_0" dir="s" state="M"/>
    <connection from="gneE82" to="gneE83" fromLane="0" toLane="0" via=":gneJ6_1_0" dir="s" state="M"/>
    <connection from="gneE83" to="gneE84" fromLane="0" toLane="0" via=":gneJ5_1_0" dir="s" state="M"/>
    <connection from="gneE84" to="gneE85" fromLane="0" toLane="0" via=":gneJ4_0_0" dir="l" state="M"/>
    <connection from="gneE85" to="parkingExit" fromLane="0" toLane="0" via=":gneJ3_0_0" dir="s" state="M"/>
    <connection from="gneE9" to="gneE10" fromLane="0" toLane="0" via=":gneJ7_0_0" dir="s" state="M"/>
    <connection from="networkEntrance" to="gneE0" fromLane="0" toLane="0" via=":gneJ0_0_0" dir="s" state="M"/>
    <connection from="pa0" to="pa1" fromLane="0" toLane="0" via=":gneJ39_0_0" dir="t" state="M"/>
    <connection from="pa1" to="gneE79" fromLane="0" toLane="0" via=":gneJ10_4_0" dir="r" state="m"/>
    <connection from="pa1" to="gneE120" fromLane="0" toLane="0" via=":gneJ10_5_0" dir="l" state="m"/>
    <connection from="parkingExit" to="networkExit" fromLane="0" toLane="0" via=":gneJ1_2_0" dir="r" state="m"/>
    <connection from="parkingExit" to="gneE3" fromLane="0" toLane="0" via=":gneJ1_3_0" dir="l" state="m"/>
    <connection from="pb0" to="pb1" fromLane="0" toLane="0" via=":gneJ29_0_0" dir="t" state="M"/>
    <connection from="pb1" to="gneE67" fromLane="0" toLane="0" via=":gneJ26_1_0" dir="r" state="M"/>

    <connection from=":gneJ0_0" to="gneE0" fromLane="0" toLane="0" dir="s" state="M"/>
    <connection from=":gneJ0_1" to="gneE87" fromLane="0" toLane="0" dir="s" state="M"/>
    <connection from=":gneJ1_0" to="gneE3" fromLane="0" toLane="0" dir="s" state="M"/>
    <connection from=":gneJ1_1" to="gneE4" fromLane="0" toLane="0" via=":gneJ1_6_0" dir="l" state="m"/>
    <connection from=":gneJ1_6" to="gneE4" fromLane="0" toLane="0" dir="l" state="M"/>
    <connection from=":gneJ1_2" to="networkExit" fromLane="0" toLane="0" dir="r" state="M"/>
    <connection from=":gneJ1_3" to="gneE3" fromLane="0" toLane="0" dir="l" state="M"/>
    <connection from=":gneJ1_4" to="gneE4" fromLane="0" toLane="0" dir="r" state="M"/>
    <connection from=":gneJ1_5" to="networkExit" fromLane="0" toLane="0" dir="s" state="M"/>
    <connection from=":gneJ10_0" to="pa0" fromLane="0" toLane="0" dir="r" state="M"/>
    <connection from=":gneJ10_1" to="gneE79" fromLane="0" toLane="0" dir="s" state="M"/>
    <connection from=":gneJ10_2" to="gneE120" fromLane="0" toLane="0" dir="s" state="M"/>
    <connection from=":gneJ10_3" to="pa0" fromLane="0" toLane="0" via=":gneJ10_6_0" dir="l" state="m"/>
    <connection from=":gneJ10_6" to="pa0" fromLane="0" toLane="0" dir="l" state="M"/>
    <connection from=":gneJ10_4" to="gneE79" fromLane="0" toLane="0" dir="r" state="M"/>
    <connection from=":gneJ10_5" to="gneE120" fromLane="0" toLane="0" dir="l" state="M"/>
    <connection from=":gneJ24_0" to="gneE123" fromLane="0" toLane="0" dir="s" state="M"/>
    <connection from=":gneJ24_1" to="gneE27" fromLane="0" toLane="0" dir="s" state="M"/>
    <connection from=":gneJ25_0" to="gneE68" fromLane="0" toLane="0" dir="s" state="M"/>
    <connection from=":gneJ25_1" to="gneE28" fromLane="0" toLane="0" dir="s" state="M"/>
    <connection from=":gneJ26_0" to="pb0" fromLane="0" toLane="0" dir="l" state="M"/>
    <connection from=":gneJ26_1" to="gneE67" fromLane="0" toLane="0" dir="r" state="M"/>
    <connection from=":gneJ29_0" to="pb1" fromLane="0" toLane="0" dir="t" state="M"/>
    <connection from=":gneJ3_0" to="parkingExit" fromLane="0" toLane="0" dir="s" state="M"/>
    <connection from=":gneJ3_1" to="A_Entrance_0" fromLane="0" toLane="0" dir="s" state="M"/>
    <connection from=":gneJ39_0" to="pa1" fromLane="0" toLane="0" dir="t" state="M"/>
    <connection from=":gneJ4_0" to="gneE85" fromLane="0" toLane="0" dir="l" state="M"/>
    <connection from=":gneJ4_1" to="gneE7" fromLane="0" toLane="0" dir="r" state="M"/>
    <connection from=":gneJ5_0" to="gneE8" fromLane="0" toLane="0" dir="s" state="M"/>
    <connection from=":gneJ5_1" to="gneE84" fromLane="0" toLane="0" dir="s" state="M"/>
    <connection from=":gneJ6_0" to="gneE9" fromLane="0" toLane="0" dir="s" state="M"/>
    <connection from=":gneJ6_1" to="gneE83" fromLane="0" toLane="0" dir="s" state="M"/>
    <connection from=":gneJ61_0" to="gneE121" fromLane="0" toLane="0" dir="s" state="M"/>
    <connection from=":gneJ61_1" to="gneE122" fromLane="0" toLane="0" dir="s" state="M"/>
    <connection from=":gneJ7_0" to="gneE10" fromLane="0" toLane="0" dir="s" state="M"/>
    <connection from=":gneJ7_1" to="gneE82" fromLane="0" toLane="0" dir="s" state="M"/>
    <connection from=":gneJ8_0" to="gneE11" fromLane="0" toLane="0" dir="l" state="M"/>
    <connection from=":gneJ8_1" to="gneE81" fromLane="0" toLane="0" dir="r" state="M"/>
    <connection from=":gneJ9_0" to="gneE80" fromLane="0" toLane="0" dir="s" state="M"/>
    <connection from=":gneJ9_1" to="gneE12" fromLane="0" toLane="0" dir="s" state="M"/>

    <parkingArea id="ParkAreaA" lane="pa0_0" startPos="0" endPos="30" roadsideCapacity="3" angle="90" length="5"/>
    <parkingArea id="ParkAreaA1" lane="pa1_0" startPos="0" endPos="30" roadsideCapacity="3" angle="90" length="5"/>
    <parkingArea id="ParkAreaB" lane="pb0_0" startPos="0" endPos="30" roadsideCapacity="3" angle="90" length="5"/>
    <parkingArea id="ParkAreaB1" lane="pb1_0" startPos="0" endPos="30" roadsideCapacity="3" angle="90" length="5"/>

    <rerouter id="myRerouter" edges="pa0 pa1">
      <interval begin="0" end="2000">
         <parkingAreaReroute id="ParkAreaA"/>
         <parkingAreaReroute id="ParkAreaA1"/>
         <parkingAreaReroute id="ParkAreaB"/>
      </interval>
   </rerouter>
</net>
